/*---------------------------------------------------------------------------*\
| =========                |                                                 |
| \      /  F ield         | OpenFOAM: The Open Source CFD Toolbox           |
|  \    /   O peration     | Script: /home/mauricio/Documents/Unesp/CFD/classyGen/genCylinder.py|
|   \  /    A nd           | Time: 2026-04-10 00:05:56.870560                |
|    \/     M anipulation  |                                                 |
\*---------------------------------------------------------------------------*/
FoamFile
{
    version     2.0;
    format      ascii;
    class       dictionary;
    object      blockMeshDict;
}
// * * * * * * * * * * * * * * * * * * * * * * * * * * * * * * * * * * * * * //

vertices
(
	(62.76342170 3.53152194 63.16092076) // 0
	(64.12574595 4.13554198 63.16092076) // 1
	(63.78839104 4.02567745 62.02420789) // 2
	(62.74414161 3.57500681 61.67145612) // 3
	(61.08975349 6.83907683 62.60739199) // 4
	(62.27824359 7.50094490 62.56161505) // 5
	(61.95023370 7.35599279 61.53479503) // 6
	(61.02877314 6.85453728 61.24771704) // 7
	(61.40109745 2.92750190 63.16092076) // 8
	(61.70902445 3.10373901 62.02420789) // 9
	(59.90126339 6.17720876 62.65316892) // 10
	(60.13619669 6.34575874 61.60466609) // 11
	(61.73845237 3.03736643 64.29763363) // 12
	(62.78270179 3.48803707 64.65038540) // 13
	(60.22927328 6.32216086 63.67998894) // 14
	(61.15073383 6.82361637 63.96706693) // 15
	(63.81781896 3.95930487 64.29763363) // 16
	(62.04331028 7.33239492 63.61011789) // 17
	(64.46632701 4.28654699 63.16092076) // 18
	(63.95051624 4.10384083 61.84440757) // 19
	(62.57536611 7.66641191 62.55017082) // 20
	(62.08634073 7.43775632 61.36513630) // 21
	(62.73932159 3.58587802 61.29908996) // 22
	(61.01352806 6.85840240 60.90779831) // 23
	(61.54224446 3.03607416 61.84440757) // 24
	(59.98536721 6.26772782 61.44605925) // 25
	(61.06051639 2.77649689 63.16092076) // 26
	(59.60414086 6.01174174 62.66461316) // 27
	(61.57632716 2.95920305 64.47743394) // 28
	(60.09316625 6.24039733 63.84964768) // 29
	(62.78752181 3.47716585 65.02275156) // 30
	(61.16597892 6.81975126 64.30698567) // 31
	(63.98459895 4.02696972 64.47743394) // 32
	(62.19413977 7.41042583 63.76872473) // 33
	(60.23504458 10.22342678 63.81810208) // 34
	(61.76798695 10.43276979 63.56593083) // 35
	(61.16057522 10.91685169 62.58320127) // 36
	(59.91484925 10.92269659 62.45215046) // 37
	(58.70210221 10.01408377 64.07027334) // 38
	(58.82078780 10.59732361 62.96809971) // 39
	(59.30951393 9.53000187 65.05300289) // 40
	(60.55523990 9.52415697 65.18405370) // 41
	(61.64930135 9.84952996 64.66810445) // 42
	(62.15122254 10.48510555 63.50288802) // 43
	(61.30697165 11.02653464 62.38787001) // 44
	(59.83480042 11.09751405 62.11066256) // 45
	(58.59708679 10.65646499 62.83365002) // 46
	(58.31886661 9.96174802 64.13331615) // 47
	(59.16311750 9.42031892 65.24833415) // 48
	(60.63528873 9.34933952 65.52554161) // 49
	(61.87300236 9.79038858 64.80255415) // 50
	(61.18456040 13.59123614 65.09196088) // 51
	(62.56682851 13.07663158 64.53650193) // 52
	(61.98487833 13.67476129 63.59328468) // 53
	(60.85096983 14.21528590 63.68366515) // 54
	(59.80229229 14.10584071 65.64741982) // 55
	(59.87507068 14.46022154 64.44110250) // 56
	(60.38424248 13.50771099 66.59063708) // 57
	(61.51815097 12.96718639 66.50025660) // 58
	(62.49405013 12.72225075 65.74281926) // 59
	(62.91239554 12.94798044 64.39763719) // 60
	(62.11146915 13.68797294 63.35623057) // 61
	(60.76757219 14.37129834 63.33159122) // 62
	(59.66794127 14.59767388 64.33815254) // 63
	(59.45672527 14.23449185 65.78628456) // 64
	(60.25765165 13.49449935 66.82769118) // 65
	(61.60154862 12.81117395 66.85233054) // 66
	(62.70117954 12.58479840 65.84576921) // 67
	(62.62921762 16.98649088 65.73735889) // 68
	(64.04702785 16.58484486 65.19467528) // 69
	(63.30947869 16.78116302 64.19864979) // 70
	(62.10277129 17.11909042 64.26383166) // 71
	(61.21140739 17.38813689 66.28004250) // 72
	(61.14542177 17.39421040 65.02696813) // 73
	(61.94895655 17.19181874 67.27606799) // 74
	(63.15566395 16.85389133 67.21088611) // 75
	(64.11301347 16.57877136 66.44774965) // 76
	(64.40148040 16.48443335 65.05900437) // 77
	(63.41707944 16.74868515 63.95526345) // 78
	(61.97115970 17.15224031 63.89544986) // 79
	(60.91072137 17.45870170 64.91460160) // 80
	(60.85695484 17.48854840 66.41571340) // 81
	(61.84135580 17.22429661 67.51945433) // 82
	(63.28727554 16.82074144 67.57926792) // 83
	(64.34771387 16.51428005 66.56011618) // 84
	(63.24778222 20.52861670 64.78293344) // 85
	(64.63750226 20.23322034 64.20303771) // 86
	(63.81445276 19.71481415 63.45640577) // 87
	(62.60058543 19.75766626 63.62464523) // 88
	(61.85806218 20.82401306 65.36282918) // 89
	(61.69327095 20.16568868 64.34152238) // 90
	(62.68111168 21.34241925 66.10946112) // 91
	(63.89497901 21.29956714 65.94122166) // 92
	(64.80229349 20.89154471 65.22434451) // 93
	(64.98493227 20.15937125 64.05806377) // 94
	(63.90408625 19.58609038 63.24658137) // 95
	(62.43878623 19.56492865 63.33507318) // 96
	(61.44738509 20.10828230 64.27170189) // 97
	(61.51063217 20.89786215 65.50780312) // 98
	(62.59147819 21.47114301 66.31928552) // 99
	(64.05677821 21.49230475 66.23079371) // 100
	(65.04817935 20.94895110 65.29416500) // 101
	(62.05330743 23.14991423 62.40287371) // 102
	(63.31069739 23.18371360 61.53030496) // 103
	(62.66569301 22.19860365 61.19876353) // 104
	(61.59834233 21.86958770 61.69766535) // 105
	(60.79591748 23.11611486 63.27544246) // 106
	(60.74649157 22.14701441 62.53059793) // 107
	(61.44092186 24.10122481 63.60698389) // 108
	(62.50827253 24.43024077 63.10808207) // 109
	(63.36012330 24.15281406 62.27514949) // 110
	(63.62504487 23.19216344 61.31216278) // 111
	(62.76255750 22.04812947 61.00830260) // 112
	(61.48460106 21.54950606 61.52136326) // 113
	(60.53978510 21.98838006 62.55080079) // 114
	(60.48156999 23.10766502 63.49358464) // 115
	(61.34405736 24.25169900 63.79744482) // 116
	(62.62201381 24.75032240 63.28438416) // 117
	(63.56682977 24.31144841 62.25494663) // 118
	(59.64190372 24.55802444 59.90485542) // 119
	(60.59448911 24.74040345 58.77392103) // 120
	(60.30063610 23.58715712 58.80526220) // 121
	(59.55247262 23.10349255 59.59496402) // 122
	(58.68931833 24.37564543 61.03578981) // 123
	(58.84666929 23.30878520 60.53144977) // 124
	(58.98317135 25.52889176 61.00444864) // 125
	(59.73133483 26.01255633 60.21474683) // 126
	(60.43713815 25.80726368 59.27826108) // 127
	(60.83263546 24.78599820 58.49118744) // 128
	(60.40483153 23.43358953 58.63133331) // 129
	(59.53011484 22.73985958 59.51749116) // 130
	(58.72088256 23.11118595 60.63056175) // 131
	(58.45117198 24.33005068 61.31852341) // 132
	(58.87897591 25.68245935 61.17837754) // 133
	(59.75369261 26.37618930 60.29221968) // 134
	(60.56292489 26.00486293 59.17914910) // 135
	(56.52453483 24.72523121 57.81393935) // 136
	(57.23001408 24.91676614 56.53219634) // 137
	(57.21446927 23.75863450 56.75287400) // 138
	(56.72309474 23.26713931 57.70534065) // 139
	(55.81905558 24.53369629 59.09568236) // 140
	(56.13766984 23.46628757 58.70924642) // 141
	(55.83460040 25.69182792 58.87500469) // 142
	(56.32597492 26.18332312 57.92253805) // 143
	(56.91139983 25.98417486 56.91863228) // 144
	(57.40638389 24.96464987 56.21176059) // 145
	(57.32360011 23.60574243 56.58503929) // 146
	(56.77273472 22.90261633 57.67819097) // 147
	(56.07647721 23.26715331 58.85086221) // 148
	(55.64268577 24.48581256 59.41611811) // 149
	(55.72546956 25.84472000 59.04283941) // 150
	(56.27633494 26.54784610 57.94968773) // 151
	(56.97259246 26.18330912 56.77701648) // 152
	(53.25408681 24.67704379 55.93467613) // 153
	(53.89727297 24.85713709 54.74838658) // 154
	(53.75446166 23.78656832 54.87844562) // 155
	(53.26655491 23.33013715 55.73695918) // 156
	(52.61090064 24.49695049 57.12096568) // 157
	(52.77274249 23.51168516 56.68912385) // 158
	(52.75371196 25.56751927 56.99090664) // 159
	(53.24161870 26.02395043 56.13239308) // 160
	(53.73543112 25.84240242 55.18022841) // 161
	(54.05806952 24.90216042 54.45181419) // 162
	(53.83360878 23.64571676 54.71137566) // 163
	(53.26967194 22.99341050 55.68752995) // 164
	(52.69660554 23.32735378 56.80845912) // 165
	(52.45010410 24.45192717 57.41753807) // 166
	(52.67456483 25.70837082 57.15797660) // 167
	(53.23850168 26.36067709 56.18182232) // 168
	(53.81156808 26.02673380 55.06089314) // 169
	(50.04721609 25.52129966 54.17934453) // 170
	(50.73209141 25.69787942 52.99777142) // 171
	(50.22464840 24.72330807 52.93809681) // 172
	(49.59483497 24.29909063 53.73447824) // 173
	(49.36234077 25.34471991 55.36091763) // 174
	(49.17929751 24.45378777 54.74157615) // 175
	(49.86978378 26.31929126 55.42059225) // 176
	(50.49959721 26.74350870 54.62421081) // 177
	(50.91513467 26.58881156 53.61711290) // 178
	(50.90331024 25.74202436 52.70237814) // 179
	(50.25271387 24.59708522 52.74176162) // 180
	(49.48173969 23.99353837 53.62326167) // 181
	(49.04201391 24.28493336 54.83050752) // 182
	(49.19112194 25.30057497 55.65631091) // 183
	(49.84171831 26.44551411 55.61692743) // 184
	(50.61269249 27.04906096 54.73542738) // 185
	(51.05241827 26.75766596 53.52818154) // 186
	(47.72297599 28.14394374 52.91750309) // 187
	(48.49186657 28.09451720 51.92679724) // 188
	(47.66201260 27.58613373 51.68464831) // 189
	(46.87420348 27.46245722 52.29276703) // 190
	(46.95408541 28.19337028 53.90820894) // 191
	(46.48842607 27.66157532 53.19679980) // 192
	(47.78393938 28.70175375 54.15035787) // 193
	(48.57174850 28.82543027 53.54223915) // 194
	(48.95752591 28.62631217 52.63820638) // 195
	(48.68408922 28.08216056 51.67912078) // 196
	(47.65236968 27.49790176 51.48964068) // 197
	(46.66201035 27.29208559 52.13658302) // 198
	(46.29315031 27.58527637 53.24097774) // 199
	(46.76186276 28.20572692 54.15588540) // 200
	(47.79358230 28.78998573 54.34536550) // 201
	(48.78394163 28.99580190 53.69842316) // 202
	(49.15280167 28.70261112 52.59402844) // 203
	(46.85791454 31.67756619 52.01875644) // 204
	(47.60916734 31.60816906 51.05335137) // 205
	(46.70514430 31.41290281 50.73217326) // 206
	(45.90648289 31.40016797 51.29831787) // 207
	(46.10666173 31.74696333 52.98416151) // 208
	(45.55847897 31.51882626 52.20570722) // 209
	(47.01068477 31.94222958 53.30533962) // 210
	(47.80934618 31.95496442 52.73919501) // 211
	(48.15735010 31.83630613 51.83180567) // 212
	(47.79698054 31.59081978 50.81200011) // 213
	(46.68097977 31.37103951 50.52866711) // 214
	(45.66862498 31.33081841 51.11820823) // 215
	(45.35293989 31.49371747 52.23527828) // 216
	(45.91884853 31.76431261 53.22551278) // 217
	(47.03484930 31.98409288 53.50884578) // 218
	(48.04720409 32.02431398 52.91930466) // 219
	(48.36288918 31.86141492 51.80223460) // 220
	(46.42373219 35.32937036 51.20488592) // 221
	(47.15442588 35.19240326 50.27010693) // 222
	(46.28363001 34.91934706 49.99084402) // 223
	(45.50945895 34.92907319 50.54887401) // 224
	(45.69303850 35.46633747 52.13966490) // 225
	(45.16834483 35.12840509 51.41763224) // 226
	(46.56383436 35.73939367 52.41892782) // 227
	(47.33800543 35.72966753 51.86089783) // 228
	(47.67911955 35.53033564 50.99213960) // 229
	(47.33709930 35.15816149 50.03641219) // 230
	(46.26146926 34.85449135 49.79881213) // 231
	(45.28089064 34.82899890 50.38487103) // 232
	(44.96977310 35.09661727 51.45128353) // 233
	(45.51036507 35.50057924 52.37335965) // 234
	(46.58599512 35.80424938 52.61095970) // 235
	(47.56657374 35.82974183 52.02490081) // 236
	(47.87769128 35.56212346 50.95848831) // 237
	(45.36038948 38.61209801 49.71750931) // 238
	(46.14541078 38.37727636 48.80416568) // 239
	(45.32723764 37.86854582 48.62214201) // 240
	(44.53192846 37.87262376 49.19556449) // 241
	(44.57536819 38.84691966 50.63085295) // 242
	(44.12903020 38.22696292 50.01621266) // 243
	(45.39354133 39.35565019 50.81287661) // 244
	(46.18885051 39.35157226 50.23945414) // 245
	(46.59174877 38.99723310 49.41880597) // 246
	(46.34166610 38.31857094 48.57582977) // 247
	(45.32199382 37.75093396 48.44888156) // 248
	(44.32481320 37.68775520 49.06507828) // 249
	(43.93425912 38.16604392 50.06346026) // 250
	(44.37911287 38.90562507 50.85918886) // 251
	(45.39878515 39.47326205 50.98613707) // 252
	(46.39596577 39.53644082 50.36994034) // 253
	(46.78651985 39.05815210 49.37155837) // 254
	(44.07993852 40.53810088 46.89007696) // 255
	(45.20632691 39.91194678 46.47243634) // 256
	(44.42065108 39.16818004 46.50926098) // 257
	(43.39999472 39.36921182 46.80872443) // 258
	(42.95355013 41.16425498 47.30771759) // 259
	(42.70140225 40.12390251 47.14672153) // 260
	(43.73922596 41.90802172 47.27089295) // 261
	(44.75988232 41.70698994 46.97142949) // 262
	(45.45847480 40.95229925 46.63343240) // 263
	(45.48792400 39.75540826 46.36802618) // 264
	(44.47454352 38.95149189 46.44902516) // 265
	(43.23000877 39.07698955 46.78838630) // 266
	(42.48335135 40.05838641 47.18731645) // 267
	(42.67195304 41.32079350 47.41212775) // 268
	(43.68533353 42.12470987 47.33112877) // 269
	(44.92986827 41.99921221 46.99176763) // 270
	(45.67652569 41.01781535 46.59283747) // 271
	(44.51683047 39.85863142 43.39366651) // 272
	(45.52966115 39.40585815 44.13339924) // 273
	(44.74233551 38.69149929 44.20489928) // 274
	(43.79948495 38.78208090 43.71691333) // 275
	(43.50399979 40.31140469 42.65393379) // 276
	(43.19641406 39.38258412 43.07581748) // 277
	(44.29132543 41.02576355 42.58243375) // 278
	(45.23417599 40.93518194 43.07041970) // 279
	(45.83724687 40.33467873 43.71151554) // 280
	(45.78286882 39.29266483 44.31833242) // 281
	(44.77800492 38.50688739 44.33321656) // 282
	(43.62014857 38.51294327 43.79772503) // 283
	(42.98755632 39.30728502 43.02554150) // 284
	(43.25079212 40.42459801 42.46900061) // 285
	(44.25565602 41.21037545 42.45411647) // 286
	(45.41351236 41.20431957 42.98960800) // 287
	(46.04610462 40.40997783 43.76179153) // 288
	(46.92603752 38.79808830 40.81146049) // 289
	(47.67716063 38.51156620 41.76806857) // 290
	(47.42223359 37.65395460 41.32480802) // 291
	(46.82509311 37.58542204 40.52750512) // 292
	(46.17491441 39.08461039 39.85485240) // 293
	(46.27576622 38.09128402 39.86470122) // 294
	(46.42984145 39.94222200 40.29811295) // 295
	(47.02698192 40.01075455 41.09541585) // 296
	(47.57630882 39.50489258 41.75821975) // 297
	(47.86494140 38.43993568 42.00722059) // 298
	(47.50071973 37.47298049 41.40600711) // 299
	(46.79985701 37.28225548 40.45651628) // 300
	(46.17290912 37.97948478 39.71494695) // 301
	(45.98713363 39.15624092 39.61570038) // 302
	(46.35135531 40.12319611 40.21691386) // 303
	(47.05221803 40.31392112 41.16640470) // 304
	(47.67916592 39.61669182 41.90797403) // 305
	(48.33693035 40.97371571 38.62671338) // 306
	(49.45404181 41.40900017 38.96701725) // 307
	(49.53775192 41.08140355 38.03030677) // 308
	(48.79328685 40.67953744 37.50492230) // 309
	(47.21981889 40.53843124 38.28640950) // 310
	(47.83266281 40.41701255 37.51088821) // 311
	(47.13610878 40.86602786 39.22311998) // 312
	(47.88057386 41.26789397 39.74850445) // 313
	(48.84119789 41.53041886 39.74253854) // 314
	(49.73331968 41.51782129 39.05209321) // 315
	(49.72769268 41.09843715 37.93596975) // 316
	(48.90737597 40.60599288 37.22447454) // 317
	(47.75289996 40.32895565 37.33439182) // 318
	(46.94054103 40.42961012 38.20133354) // 319
	(46.94616803 40.84899426 39.31745700) // 320
	(47.76648473 41.34143853 40.02895221) // 321
	(48.92096075 41.61847576 39.91903493) // 322
	(45.70054060 43.26449354 38.79074762) // 323
	(46.06670627 44.42852492 39.23300418) // 324
	(45.72184924 44.56238310 38.26407552) // 325
	(45.36229620 43.80112084 37.65837882) // 326
	(45.33437493 42.10046215 38.34849106) // 327
	(45.16295685 42.78567834 37.58904275) // 328
	(45.67923195 41.96660397 39.31741972) // 329
	(46.03878499 42.72786624 39.92311642) // 330
	(46.23812435 43.74330873 39.99245249) // 331
	(46.15824769 44.71953277 39.34356832) // 332
	(45.72521975 44.76767765 38.18076881) // 333
	(45.27773510 43.93527766 37.37528662) // 334
	(45.07792418 42.70994143 37.39896228) // 335
	(45.24283351 41.80945430 38.23792692) // 336
	(45.67586145 41.76130943 39.40072643) // 337
	(46.12334609 42.59370941 40.20620862) // 338
	(46.32315702 43.81904564 40.18253296) // 339
	(42.98404716 44.47792338 40.93164661) // 340
	(44.02351698 45.34813657 40.79311164) // 341
	(43.24640536 45.66021998 40.09712339) // 342
	(42.28835217 45.15690439 39.97668394) // 343
	(41.94457735 43.60771018 41.07018157) // 344
	(41.65982360 44.33198095 40.30857449) // 345
	(42.72168896 43.29562677 41.76616982) // 346
	(43.67974216 43.79894237 41.88660927) // 347
	(44.30827073 44.62386580 41.55471872) // 348
	(44.28338443 45.56568987 40.75847790) // 349
	(43.28790405 45.84723054 39.96512212) // 350
	(42.11442842 45.32664964 39.73794327) // 351
	(41.45036365 44.30889641 40.21001965) // 352
	(41.68470989 43.39015688 41.10481531) // 353
	(42.68019028 43.10861622 41.89817109) // 354
	(43.85366591 43.62919711 42.12534994) // 355
	(44.51773067 44.64695035 41.65327357) // 356
	(43.56863716 46.03686924 44.10817115) // 357
	(44.40923296 46.53548863 43.31946397) // 358
	(43.72774851 47.24555896 43.51567298) // 359
	(42.93652913 47.12202764 44.12051245) // 360
	(42.72804136 45.53824985 44.89687834) // 361
	(42.44471562 46.48449748 44.71950632) // 362
	(43.40952580 44.82817952 44.70066933) // 363
	(44.20074518 44.95171084 44.09582985) // 364
	(44.69255869 45.58924100 43.49683599) // 365
	(44.61938191 46.66014348 43.12228718) // 366
	(43.75291606 47.43674426 43.42195418) // 367
	(42.77850212 47.39331724 44.12359778) // 368
	(42.26693858 46.55530138 44.81620467) // 369
	(42.51789241 45.41359500 45.09405513) // 370
	(43.38435826 44.63699422 44.79438813) // 371
	(44.35877219 44.68042124 44.09274453) // 372
	(44.87033573 45.51843710 43.40013764) // 373
	(45.84885133 47.11438561 46.90831766) // 374
	(46.60493945 47.56526311 46.10292903) // 375
	(46.03325034 48.27526362 46.38233624) // 376
	(45.33438606 48.18463697 47.02449906) // 377
	(45.09276322 46.66350810 47.71370628) // 378
	(44.87920469 47.58707238 47.61163111) // 379
	(45.66445233 45.95350759 47.43429907) // 380
	(46.36331661 46.04413425 46.79213625) // 381
	(46.81849798 46.64169884 46.20500420) // 382
	(46.79396148 47.67798249 45.90158187) // 383
	(46.06241778 48.45888628 46.29913878) // 384
	(45.20576975 48.45219981 47.05354442) // 385
	(44.72583019 47.66183993 47.72287818) // 386
	(44.90374119 46.55078873 47.91505344) // 387
	(45.63528489 45.76988494 47.51749653) // 388
	(46.49193292 45.77657141 46.76309090) // 389
	(46.97187248 46.56693129 46.09375713) // 390
	(48.26490822 48.62419836 49.32137419) // 391
	(48.72296705 48.88616792 48.49111998) // 392
	(48.11788896 49.37840787 48.58866628) // 393
	(47.61420620 49.35048927 49.19154203) // 394
	(47.80684939 48.36222879 50.15162840) // 395
	(47.41873659 48.97855390 49.85591441) // 396
	(48.41192748 47.86998885 50.05408210) // 397
	(48.91561024 47.89790745 49.45120635) // 398
	(49.11107986 48.26984281 48.78683397) // 399
	(48.83748176 48.95166031 48.28355643) // 400
	(48.09463409 49.49770546 48.47276971) // 401
	(47.45153069 49.53206200 49.15908399) // 402
	(47.28489282 49.03460432 49.94046567) // 403
	(47.69233468 48.29673640 50.35919195) // 404
	(48.43518235 47.75069125 50.16997867) // 405
	(49.07828575 47.71633472 49.48366439) // 406
	(49.24492362 48.21379239 48.70228271) // 407
	(48.49794550 51.95149761 50.26902769) // 408
	(48.72858249 52.19836777 49.68967549) // 409
	(48.29594239 51.90339381 49.57561810) // 410
	(48.00261855 51.64159578 49.93978715) // 411
	(48.26730852 51.70462745 50.84837989) // 412
	(47.94391251 51.52658662 50.45990509) // 413
	(48.69994861 51.99960141 50.96243727) // 414
	(48.99327245 52.26139944 50.59826823) // 415
	(49.05197849 52.37640860 50.07815028) // 416
	(48.78624173 52.26008531 49.54483744) // 417
	(48.26399042 51.89578495 49.46593758) // 418
	(47.87878682 51.56412032 49.85747701) // 419
	(47.85627798 51.45937604 50.49009725) // 420
	(48.20964927 51.64290991 50.99321794) // 421
	(48.73190059 52.00721027 51.07211779) // 422
	(49.11710419 52.33887490 50.68057836) // 423
	(49.13961303 52.44361918 50.04795812) // 424
	(45.37453022 53.91875011 49.99344483) // 425
	(45.56222284 54.18703979 49.40610541) // 426
	(45.41971481 53.67788608 49.31031904) // 427
	(45.24604414 53.33484998 49.68566663) // 428
	(45.18683760 53.65046044 50.58078424) // 429
	(45.13323252 53.26838548 50.20679721) // 430
	(45.32934564 54.15961415 50.67657062) // 431
	(45.50301630 54.50265025 50.30122303) // 432
	(45.61582793 54.56911475 49.78009245) // 433
	(45.60914600 54.25411221 49.25927056) // 434
	(45.42686191 53.63978725 49.20226516) // 435
	(45.21392262 53.18887495 49.60872208) // 436
	(45.09506509 53.16551362 50.24054437) // 437
	(45.13991444 53.58338802 50.72761910) // 438
	(45.32219854 54.19771298 50.78462450) // 439
	(45.53513782 54.64862528 50.37816758) // 440
	(45.65399535 54.67198661 49.74634529) // 441
	(41.79377453 54.43671588 48.98810725) // 442
	(41.97674492 54.70423996 48.38651444) // 443
	(41.97876623 54.16118957 48.32946886) // 444
	(41.85320362 53.80816247 48.72666894) // 445
	(41.61080415 54.16919181 49.58970006) // 446
	(41.69949167 53.75285754 49.24770253) // 447
	(41.60878283 54.71224219 49.64674564) // 448
	(41.73434545 55.06526930 49.24954557) // 449
	(41.88805740 55.12057423 48.72851197) // 450
	(42.02248752 54.77112098 48.23611623) // 451
	(42.00802742 54.11760802 48.22528830) // 452
	(41.86806089 53.65102411 48.66130936) // 453
	(41.68457842 53.64468779 49.28876419) // 454
	(41.56506155 54.10231079 49.74009827) // 455
	(41.57952165 54.75582375 49.75092621) // 456
	(41.71948818 55.22240766 49.31490515) // 457
	(41.90297065 55.22874398 48.68745031) // 458
	(38.28471169 54.56011974 47.63555622) // 459
	(38.55976285 54.83069962 47.05830585) // 460
	(38.55675088 54.27937736 46.99623146) // 461
	(38.36612061 53.92167576 47.37508262) // 462
	(38.00966053 54.28953985 48.21280660) // 463
	(38.13692998 53.86638113 47.87731036) // 464
	(38.01267250 54.84086211 48.27488098) // 465
	(38.20330278 55.19856371 47.89602982) // 466
	(38.43249340 55.25385834 47.39380208) // 467
	(38.62852564 54.89834460 46.91399325) // 468
	(38.59978087 54.23497075 46.89510584) // 469
	(38.38647284 53.76206477 47.30996422) // 470
	(38.11355451 53.75664856 47.91554998) // 471
	(37.94089774 54.22189487 48.35711919) // 472
	(37.96964252 54.88526872 48.37600660) // 473
	(38.18295055 55.35817470 47.96114822) // 474
	(38.45586887 55.36359091 47.35556246) // 475
	(35.65232505 55.09696067 45.08485518) // 476
	(36.22080123 55.29776680 44.82831913) // 477
	(36.16376818 54.79266491 44.70288622) // 478
	(35.75400620 54.49742784 44.84088729) // 479
	(35.08384888 54.89615454 45.34139123) // 480
	(35.29608167 54.48616698 45.09444681) // 481
	(35.14088193 55.40125643 45.46682415) // 482
	(35.55064391 55.69649351 45.32882307) // 483
	(36.00856843 55.70775436 45.07526356) // 484
	(36.36292027 55.34796833 44.76418512) // 485
	(36.24466604 54.74453272 44.64246802) // 486
	(35.77942649 54.34754463 44.77989532) // 487
	(35.23973264 54.38955429 45.09596397) // 488
	(34.94172983 54.84595301 45.40552524) // 489
	(35.05998407 55.44938862 45.52724234) // 490
	(35.52522362 55.84637671 45.38981504) // 491
	(36.06491747 55.80436705 45.07374639) // 492
	(34.74313895 56.67039835 41.88112071) // 493
	(35.38647947 56.70043471 41.94248165) // 494
	(35.27931712 56.28515883 41.65383712) // 495
	(34.80236673 56.13557256 41.52194413) // 496
	(34.09979843 56.64036199 41.81975978) // 497
	(34.29736236 56.23931321 41.56017962) // 498
	(34.20696077 57.05563787 42.10840431) // 499
	(34.68391117 57.20522414 42.24029730) // 500
	(35.18891554 57.10148349 42.20206181) // 501
	(35.54731460 56.70794380 41.95782188) // 502
	(35.36412746 56.22422331 41.61788638) // 503
	(34.81717367 56.00186611 41.43214998) // 504
	(34.22685135 56.17112603 41.50941454) // 505
	(33.93896329 56.63285290 41.80441954) // 506
	(34.12215043 57.11657339 42.14435504) // 507
	(34.66910422 57.33893059 42.33009145) // 508
	(35.25942655 57.16967067 42.25282688) // 509
	(35.58702715 59.06547344 39.81655386) // 510
	(36.15304633 58.95610031 40.03472334) // 511
	(36.15546644 58.83767422 39.55663777) // 512
	(35.76584887 58.87635529 39.25780952) // 513
	(35.02100798 59.17484657 39.59838437) // 514
	(35.29153015 59.00461453 39.22363751) // 515
	(35.01858787 59.29327266 40.07646994) // 516
	(35.40820544 59.25459159 40.37529819) // 517
	(35.88252416 59.12633235 40.40947020) // 518
	(36.29455112 58.92875702 40.08926571) // 519
	(36.24537971 58.80164192 39.51552537) // 520
	(35.81055430 58.82907575 39.11812344) // 521
	(35.24478972 58.99498814 39.12985257) // 522
	(34.87950319 59.20218986 39.54384200) // 523
	(34.92867460 59.32930496 40.11758234) // 524
	(35.36350001 59.30187113 40.51498427) // 525
	(35.92926459 59.13595875 40.50325514) // 526
);

blocks
(
	hex ( 0 1 2 3 4 5 6 7 )  ( 10 10 10 ) simpleGrading ( 1.0 1 1 ) // 0 
	hex ( 8 0 3 9 10 4 7 11 )  ( 10 10 10 ) simpleGrading ( 1.0 1 1 ) // 1 
	hex ( 12 13 0 8 14 15 4 10 )  ( 10 10 10 ) simpleGrading ( 1.0 1.0 1 ) // 2 
	hex ( 13 16 1 0 15 17 5 4 )  ( 10 10 10 ) simpleGrading ( 1.0 1.0 1 ) // 3 
	hex ( 1 18 19 2 5 20 21 6 )  ( 10 10 10 ) simpleGrading ( 1 1 1 ) // 4 
	hex ( 2 19 22 3 6 21 23 7 )  ( 10 10 10 ) simpleGrading ( 1 1 1 ) // 5 
	hex ( 3 22 24 9 7 23 25 11 )  ( 10 10 10 ) simpleGrading ( 1 1 1 ) // 6 
	hex ( 9 24 26 8 11 25 27 10 )  ( 10 10 10 ) simpleGrading ( 1 1.0 1 ) // 7 
	hex ( 8 26 28 12 10 27 29 14 )  ( 10 10 10 ) simpleGrading ( 1 1 1 ) // 8 
	hex ( 12 28 30 13 14 29 31 15 )  ( 10 10 10 ) simpleGrading ( 1 1.0 1 ) // 9 
	hex ( 13 30 32 16 15 31 33 17 )  ( 10 10 10 ) simpleGrading ( 1 1.0 1 ) // 10 
	hex ( 16 32 18 1 17 33 20 5 )  ( 10 10 10 ) simpleGrading ( 1 1.0 1 ) // 11 
	hex ( 4 5 6 7 34 35 36 37 )  ( 10 10 10 ) simpleGrading ( 1.0 1 1 ) // 12 
	hex ( 10 4 7 11 38 34 37 39 )  ( 10 10 10 ) simpleGrading ( 1.0 1 1 ) // 13 
	hex ( 14 15 4 10 40 41 34 38 )  ( 10 10 10 ) simpleGrading ( 1.0 1.0 1 ) // 14 
	hex ( 15 17 5 4 41 42 35 34 )  ( 10 10 10 ) simpleGrading ( 1.0 1.0 1 ) // 15 
	hex ( 5 20 21 6 35 43 44 36 )  ( 10 10 10 ) simpleGrading ( 1 1 1 ) // 16 
	hex ( 6 21 23 7 36 44 45 37 )  ( 10 10 10 ) simpleGrading ( 1 1 1 ) // 17 
	hex ( 7 23 25 11 37 45 46 39 )  ( 10 10 10 ) simpleGrading ( 1 1 1 ) // 18 
	hex ( 11 25 27 10 39 46 47 38 )  ( 10 10 10 ) simpleGrading ( 1 1.0 1 ) // 19 
	hex ( 10 27 29 14 38 47 48 40 )  ( 10 10 10 ) simpleGrading ( 1 1 1 ) // 20 
	hex ( 14 29 31 15 40 48 49 41 )  ( 10 10 10 ) simpleGrading ( 1 1.0 1 ) // 21 
	hex ( 15 31 33 17 41 49 50 42 )  ( 10 10 10 ) simpleGrading ( 1 1.0 1 ) // 22 
	hex ( 17 33 20 5 42 50 43 35 )  ( 10 10 10 ) simpleGrading ( 1 1.0 1 ) // 23 
	hex ( 34 35 36 37 51 52 53 54 )  ( 10 10 10 ) simpleGrading ( 1.0 1 1 ) // 24 
	hex ( 38 34 37 39 55 51 54 56 )  ( 10 10 10 ) simpleGrading ( 1.0 1 1 ) // 25 
	hex ( 40 41 34 38 57 58 51 55 )  ( 10 10 10 ) simpleGrading ( 1.0 1.0 1 ) // 26 
	hex ( 41 42 35 34 58 59 52 51 )  ( 10 10 10 ) simpleGrading ( 1.0 1.0 1 ) // 27 
	hex ( 35 43 44 36 52 60 61 53 )  ( 10 10 10 ) simpleGrading ( 1 1 1 ) // 28 
	hex ( 36 44 45 37 53 61 62 54 )  ( 10 10 10 ) simpleGrading ( 1 1 1 ) // 29 
	hex ( 37 45 46 39 54 62 63 56 )  ( 10 10 10 ) simpleGrading ( 1 1 1 ) // 30 
	hex ( 39 46 47 38 56 63 64 55 )  ( 10 10 10 ) simpleGrading ( 1 1.0 1 ) // 31 
	hex ( 38 47 48 40 55 64 65 57 )  ( 10 10 10 ) simpleGrading ( 1 1 1 ) // 32 
	hex ( 40 48 49 41 57 65 66 58 )  ( 10 10 10 ) simpleGrading ( 1 1.0 1 ) // 33 
	hex ( 41 49 50 42 58 66 67 59 )  ( 10 10 10 ) simpleGrading ( 1 1.0 1 ) // 34 
	hex ( 42 50 43 35 59 67 60 52 )  ( 10 10 10 ) simpleGrading ( 1 1.0 1 ) // 35 
	hex ( 51 52 53 54 68 69 70 71 )  ( 10 10 10 ) simpleGrading ( 1.0 1 1 ) // 36 
	hex ( 55 51 54 56 72 68 71 73 )  ( 10 10 10 ) simpleGrading ( 1.0 1 1 ) // 37 
	hex ( 57 58 51 55 74 75 68 72 )  ( 10 10 10 ) simpleGrading ( 1.0 1.0 1 ) // 38 
	hex ( 58 59 52 51 75 76 69 68 )  ( 10 10 10 ) simpleGrading ( 1.0 1.0 1 ) // 39 
	hex ( 52 60 61 53 69 77 78 70 )  ( 10 10 10 ) simpleGrading ( 1 1 1 ) // 40 
	hex ( 53 61 62 54 70 78 79 71 )  ( 10 10 10 ) simpleGrading ( 1 1 1 ) // 41 
	hex ( 54 62 63 56 71 79 80 73 )  ( 10 10 10 ) simpleGrading ( 1 1 1 ) // 42 
	hex ( 56 63 64 55 73 80 81 72 )  ( 10 10 10 ) simpleGrading ( 1 1.0 1 ) // 43 
	hex ( 55 64 65 57 72 81 82 74 )  ( 10 10 10 ) simpleGrading ( 1 1 1 ) // 44 
	hex ( 57 65 66 58 74 82 83 75 )  ( 10 10 10 ) simpleGrading ( 1 1.0 1 ) // 45 
	hex ( 58 66 67 59 75 83 84 76 )  ( 10 10 10 ) simpleGrading ( 1 1.0 1 ) // 46 
	hex ( 59 67 60 52 76 84 77 69 )  ( 10 10 10 ) simpleGrading ( 1 1.0 1 ) // 47 
	hex ( 68 69 70 71 85 86 87 88 )  ( 10 10 10 ) simpleGrading ( 1.0 1 1 ) // 48 
	hex ( 72 68 71 73 89 85 88 90 )  ( 10 10 10 ) simpleGrading ( 1.0 1 1 ) // 49 
	hex ( 74 75 68 72 91 92 85 89 )  ( 10 10 10 ) simpleGrading ( 1.0 1.0 1 ) // 50 
	hex ( 75 76 69 68 92 93 86 85 )  ( 10 10 10 ) simpleGrading ( 1.0 1.0 1 ) // 51 
	hex ( 69 77 78 70 86 94 95 87 )  ( 10 10 10 ) simpleGrading ( 1 1 1 ) // 52 
	hex ( 70 78 79 71 87 95 96 88 )  ( 10 10 10 ) simpleGrading ( 1 1 1 ) // 53 
	hex ( 71 79 80 73 88 96 97 90 )  ( 10 10 10 ) simpleGrading ( 1 1 1 ) // 54 
	hex ( 73 80 81 72 90 97 98 89 )  ( 10 10 10 ) simpleGrading ( 1 1.0 1 ) // 55 
	hex ( 72 81 82 74 89 98 99 91 )  ( 10 10 10 ) simpleGrading ( 1 1 1 ) // 56 
	hex ( 74 82 83 75 91 99 100 92 )  ( 10 10 10 ) simpleGrading ( 1 1.0 1 ) // 57 
	hex ( 75 83 84 76 92 100 101 93 )  ( 10 10 10 ) simpleGrading ( 1 1.0 1 ) // 58 
	hex ( 76 84 77 69 93 101 94 86 )  ( 10 10 10 ) simpleGrading ( 1 1.0 1 ) // 59 
	hex ( 85 86 87 88 102 103 104 105 )  ( 10 10 10 ) simpleGrading ( 1.0 1 1 ) // 60 
	hex ( 89 85 88 90 106 102 105 107 )  ( 10 10 10 ) simpleGrading ( 1.0 1 1 ) // 61 
	hex ( 91 92 85 89 108 109 102 106 )  ( 10 10 10 ) simpleGrading ( 1.0 1.0 1 ) // 62 
	hex ( 92 93 86 85 109 110 103 102 )  ( 10 10 10 ) simpleGrading ( 1.0 1.0 1 ) // 63 