/*---------------------------------------------------------------------------*\
| =========                |                                                 |
| \      /  F ield         | OpenFOAM: The Open Source CFD Toolbox           |
|  \    /   O peration     | Script: /home/mauricio/Documents/Unesp/CFD/classyGen/genCylinder.py|
|   \  /    A nd           | Time: 2026-03-13 09:37:15.925680                |
|    \/     M anipulation  |                                                 |
\*---------------------------------------------------------------------------*/
FoamFile
{
    version     2.0;
    format      ascii;
    class       dictionary;
    object      blockMeshDict;
}
// * * * * * * * * * * * * * * * * * * * * * * * * * * * * * * * * * * * * * //

vertices
(
	(62.31980000 16.02550000 65.70400000) // 0
	(62.62688858 15.93551888 65.70400000) // 1
	(62.55813933 15.97040851 65.46019629) // 2
	(62.32501368 16.04329330 65.38453761) // 3
	(61.25340000 23.84560000 61.43810000) // 4
	(61.49672860 23.97462746 61.27517945) // 5
	(61.45546498 23.74174905 61.17797372) // 6
	(61.27484243 23.58049392 61.26017027) // 7
	(62.01271142 16.11548112 65.70400000) // 8
	(62.08941851 16.10775007 65.46019629) // 9
	(61.01007140 23.71657254 61.60102055) // 10
	(61.08406340 23.54480960 61.42664547) // 11
	(62.08146067 16.08059149 65.94780371) // 12
	(62.31458632 16.00770670 66.02346239) // 13
	(61.05133502 23.94945095 61.69822628) // 14
	(61.23195757 24.11070608 61.61602973) // 15
	(62.55018149 15.94324993 65.94780371) // 16
	(61.42273660 24.14639040 61.44955453) // 17
	(62.70366073 15.91302360 65.70400000) // 18
	(62.59583881 15.96169438 65.42163248) // 19
	(61.55756076 24.00688432 61.23444931) // 20
	(61.48742674 23.72532235 61.13682807) // 21
	(62.32631710 16.04774163 65.30467202) // 22
	(61.28020303 23.51421740 61.21568784) // 23
	(62.05297776 16.12076003 65.42163248) // 24
	(61.05727847 23.49723187 61.42483364) // 25
	(61.93593927 16.13797640 65.70400000) // 26
	(60.94923924 23.68431568 61.64175069) // 27
	(62.04376119 16.08930562 65.98636752) // 28
	(61.01937326 23.96587765 61.73937193) // 29
	(62.31328290 16.00325837 66.10332798) // 30
	(61.22659697 24.17698260 61.66051216) // 31
	(62.58662224 15.93023997 65.98636752) // 32
	(61.44952153 24.19396813 61.45136636) // 33
);

blocks
(
	hex ( 0 1 2 3 4 5 6 7 )  ( 10 10 10 ) simpleGrading ( 1.0 1 1 ) // 0 
	hex ( 8 0 3 9 10 4 7 11 )  ( 10 10 10 ) simpleGrading ( 1.0 1 1 ) // 1 
	hex ( 12 13 0 8 14 15 4 10 )  ( 10 10 10 ) simpleGrading ( 1.0 1.0 1 ) // 2 
	hex ( 13 16 1 0 15 17 5 4 )  ( 10 10 10 ) simpleGrading ( 1.0 1.0 1 ) // 3 
	hex ( 1 18 19 2 5 20 21 6 )  ( 10 10 10 ) simpleGrading ( 1 1 1 ) // 4 
	hex ( 2 19 22 3 6 21 23 7 )  ( 10 10 10 ) simpleGrading ( 1 1 1 ) // 5 
	hex ( 3 22 24 9 7 23 25 11 )  ( 10 10 10 ) simpleGrading ( 1 1 1 ) // 6 
	hex ( 9 24 26 8 11 25 27 10 )  ( 10 10 10 ) simpleGrading ( 1 1.0 1 ) // 7 
	hex ( 8 26 28 12 10 27 29 14 )  ( 10 10 10 ) simpleGrading ( 1 1 1 ) // 8 
	hex ( 12 28 30 13 14 29 31 15 )  ( 10 10 10 ) simpleGrading ( 1 1.0 1 ) // 9 
	hex ( 13 30 32 16 15 31 33 17 )  ( 10 10 10 ) simpleGrading ( 1 1.0 1 ) // 10 
	hex ( 16 32 18 1 17 33 20 5 )  ( 10 10 10 ) simpleGrading ( 1 1.0 1 ) // 11 
);

edges
(
		spline 0 4 ((62.31980000 16.02550000 65.70400000) (62.34790000 16.12140000 65.70980000) (62.37610000 16.21730000 65.71380000) (62.40930000 16.31130000 65.72260000) (62.44430000 16.40480000 65.73020000) (62.47710000 16.49940000 65.73080000) (62.50640000 16.59520000 65.73000000) (62.53270000 16.69150000 65.73610000) (62.56090000 16.78750000 65.73710000) (62.59140000 16.88290000 65.73520000) (62.62300000 16.97780000 65.73680000) (62.65320000 17.07330000 65.73520000) (62.68050000 17.16960000 65.73160000) (62.70350000 17.26700000 65.72970000) (62.72350000 17.36500000 65.72740000) (62.74380000 17.46280000 65.72150000) (62.76610000 17.56030000 65.71780000) (62.78220000 17.65900000 65.71220000) (62.80100000 17.75710000 65.70570000) (62.82720000 17.85340000 65.69850000) (62.85250000 17.94930000 65.68440000) (62.87430000 18.04390000 65.66070000) (62.89770000 18.13940000 65.64180000) (62.92420000 18.23320000 65.61920000) (62.94990000 18.32590000 65.59160000) (62.97110000 18.42170000 65.57200000) (62.99600000 18.51570000 65.54830000) (63.01830000 18.60920000 65.52030000) (63.03730000 18.70390000 65.49420000) (63.05980000 18.79800000 65.46870000) (63.08400000 18.89140000 65.44180000) (63.10190000 18.98620000 65.41520000) (63.12290000 19.08060000 65.38940000) (63.14370000 19.17430000 65.36110000) (63.16470000 19.26670000 65.32890000) (63.18550000 19.35860000 65.29510000) (63.20480000 19.45280000 65.26700000) (63.21980000 19.54600000 65.23430000) (63.23170000 19.63810000 65.19650000) (63.24420000 19.73200000 65.16450000) (63.25350000 19.82690000 65.13440000) (63.25580000 19.91980000 65.09720000) (63.25540000 20.01100000 65.05490000) (63.25660000 20.10060000 65.01020000) (63.25650000 20.19050000 64.96610000) (63.25450000 20.28100000 64.92330000) (63.25150000 20.37030000 64.87810000) (63.24810000 20.45590000 64.82650000) (63.24200000 20.54000000 64.77250000) (63.23510000 20.62420000 64.71890000) (63.23100000 20.70510000 64.66020000) (63.22190000 20.78620000 64.60210000) (63.21200000 20.86520000 64.54140000) (63.20100000 20.94260000 64.47900000) (63.18840000 21.02350000 64.42130000) (63.17200000 21.10210000 64.36160000) (63.15490000 21.17590000 64.29610000) (63.13730000 21.25030000 64.23150000) (63.11940000 21.32920000 64.17250000) (63.10000000 21.40640000 64.11190000) (63.07650000 21.48210000 64.05070000) (63.04940000 21.55360000 63.98620000) (63.01700000 21.62300000 63.92190000) (62.98070000 21.69590000 63.86370000) (62.94400000 21.76550000 63.80180000) (62.90830000 21.83820000 63.74310000) (62.87000000 21.90700000 63.68130000) (62.83000000 21.97570000 63.62050000) (62.79690000 22.04850000 63.56040000) (62.75940000 22.12020000 63.50140000) (62.72220000 22.18960000 63.43950000) (62.68420000 22.25560000 63.37460000) (62.64400000 22.32070000 63.31000000) (62.60350000 22.38900000 63.24920000) (62.56140000 22.45450000 63.18630000) (62.51900000 22.51650000 63.12010000) (62.47940000 22.58170000 63.05530000) (62.44110000 22.64640000 62.98930000) (62.40300000 22.70860000 62.92050000) (62.36100000 22.76720000 62.85130000) (62.31700000 22.82490000 62.78240000) (62.27690000 22.88570000 62.71370000) (62.23610000 22.94550000 62.64450000) (62.18990000 23.00360000 62.57740000) (62.14150000 23.06300000 62.51310000) (62.09170000 23.11580000 62.44410000) (62.04130000 23.16600000 62.37350000) (61.99070000 23.21740000 62.30400000) (61.93890000 23.26790000 62.23480000) (61.88460000 23.31530000 62.16540000) (61.82860000 23.36630000 62.10000000) (61.77300000 23.41890000 62.03550000) (61.71890000 23.46880000 61.96780000) (61.66420000 23.52100000 61.90210000) (61.61000000 23.57210000 61.83520000) (61.55520000 23.62130000 61.76730000) (61.49630000 23.67100000 61.70360000) (61.43730000 23.71640000 61.63680000) (61.37940000 23.75860000 61.56680000))
		spline 1 2 ((62.62455896 15.93891293 65.65916785) (62.61397702 15.94467490 65.61516430) (62.60022658 15.95122122 65.57354274) (62.58607138 15.95765081 65.53581224) (62.57346443 15.96329863 65.50350700) (62.56375553 15.96770002 65.47777032) (62.55813931 15.97040845 65.46019749))
		spline 1 5 ((62.62688858 15.93551888 65.70400000) (62.65494545 16.03127182 65.70979249) (62.68059084 16.11888756 65.71323633) (62.71006353 16.20203416 65.72109223) (62.74535839 16.29634872 65.72872775) (62.78132368 16.40017423 65.72931733) (62.81379061 16.50626419 65.72880193) (62.84058330 16.60428427 65.73496548) (62.86683228 16.69366918 65.73599622) (62.89560974 16.78362647 65.73410460) (62.92736669 16.87900871 65.73570460) (62.95970997 16.98137616 65.73391746) (62.99021228 17.08912821 65.72998959) (63.01600849 17.19818889 65.72783661) (63.03690672 17.30040846 65.72535946) (63.05642436 17.39451711 65.71964055) (63.08011495 17.49873812 65.71562079) (63.09724743 17.60297533 65.70967942) (63.11273208 17.68484217 65.70431470) (63.13629010 17.77055518 65.69828244) (63.16307979 17.87223947 65.68303168) (63.18551602 17.96946372 65.65874291) (63.20710908 18.05775519 65.64141808) (63.23241203 18.14714943 65.62000154) (63.26035182 18.24832485 65.59027107) (63.28196477 18.34580426 65.57028764) (63.30624986 18.43731654 65.54727282) (63.33062644 18.53963396 65.51672797) (63.34961422 18.63427832 65.49064317) (63.37022487 18.72031680 65.46738783) (63.39606485 18.82065610 65.43850892) (63.41505081 18.92051499 65.41050462) (63.43505657 19.01026525 65.38603914) (63.45568827 19.10321125 65.35798418) (63.47653771 19.19494369 65.32602316) (63.49802639 19.28995645 65.29118634) (63.51910076 19.39306228 65.26018531) (63.53571056 19.49611418 65.22372059) (63.54814404 19.59207345 65.18446985) (63.56125572 19.69089971 65.15084589) (63.57184219 19.80045004 65.11546191) (63.57456728 19.90596718 65.07278535) (63.57417027 19.99771454 65.03022190) (63.57536692 20.08661040 64.98587016) (63.57525560 20.18136266 64.93942838) (63.57317539 20.27585110 64.89467331) (63.57014946 20.36589002 64.84906423) (63.56660069 20.45449644 64.79559147) (63.56020257 20.54301089 64.73876487) (63.55354257 20.62396866 64.68736783) (63.54927080 20.70712507 64.62703978) (63.53944888 20.79534812 64.56364196) (63.52931128 20.87619087 64.50149071) (63.51778332 20.95737048 64.43621965) (63.50400014 21.04547877 64.37320127) (63.48665019 21.12865692 64.30973493) (63.46934894 21.20332568 64.24347208) (63.45135449 21.27946383 64.17746991) (63.43282169 21.36109227 64.11637755) (63.41167898 21.44492470 64.05048290) (63.38538395 21.52940949 63.98176149) (63.35436656 21.61095079 63.90805727) (63.31681613 21.69189203 63.83378545) (63.27788664 21.77010130 63.77110267) (63.24156759 21.83895610 63.70983407) (63.20487224 21.91358257 63.64949244) (63.16394329 21.98713763 63.58344653) (63.12712253 22.04990815 63.52770261) (63.09545316 22.11983305 63.46996987) (63.05558601 22.19613584 63.40701995) (63.01834083 22.26561724 63.34504372) (62.97849999 22.33476769 63.27702954) (62.93640993 22.40305479 63.20943101) (62.89449567 22.47367831 63.14648145) (62.85128425 22.54087335 63.08186455) (62.81074921 22.60003299 63.01858825) (62.77394551 22.66070663 62.95834179) (62.73678693 22.72353504 62.89432934) (62.69622259 22.78955291 62.82116654) (62.64989373 22.85426042 62.74471250) (62.60735339 22.90993215 62.67816737) (62.56959712 22.96732010 62.61336778) (62.52425577 23.03354832 62.53673291) (62.47180863 23.09982074 62.46048509) (62.42026832 23.16289543 62.39181882) (62.36870671 23.21753014 62.32033304) (62.31754974 23.26849583 62.24867739) (62.26560407 23.32124787 62.17733757) (62.21004466 23.37530780 62.10310285) (62.15145651 23.42664050 62.02832012) (62.09423808 23.47878005 61.96149133) (62.04057176 23.52959482 61.89929423) (61.98745375 23.57857902 61.83279093) (61.93274526 23.63078707 61.76708059) (61.87838458 23.68203508 61.69998167) (61.81844489 23.73584890 61.62594697) (61.75463240 23.78962636 61.55665729) (61.69649429 23.83438379 61.49086116) (61.63591893 23.87860860 61.41781686))
		spline 2 3 ((62.55813818 15.97040885 65.46019629) (62.54134622 15.97570052 65.45405542) (62.51677836 15.98353651 65.44351836) (62.48594740 15.99339676 65.42985495) (62.44992910 16.00487995 65.41448881) (62.41016466 16.01743934 65.39947767) (62.36805736 16.03048831 65.38772225))
		spline 2 6 ((62.55813933 15.97040851 65.46019629) (62.58559014 16.06409305 65.46587323) (62.61287642 16.15719973 65.46965692) (62.64458691 16.24710750 65.47805890) (62.67639373 16.33182876 65.48507013) (62.70812262 16.42379300 65.48545721) (62.74191108 16.53379605 65.48495910) (62.76919731 16.63351695 65.49117564) (62.79325070 16.71508864 65.49204755) (62.82265510 16.80704894 65.49015173) (62.85448801 16.90266366 65.49175146) (62.88436033 16.99735483 65.49009148) (62.91398644 17.10200175 65.48625226) (62.93950602 17.20978563 65.48412185) (62.95913786 17.30621651 65.48183889) (62.97850045 17.39954563 65.47615220) (63.00193287 17.50250116 65.47219237) (63.01816004 17.60204991 65.46651625) (63.03409938 17.68589733 65.46100465) (63.05619896 17.76511077 65.45550731) (63.07740553 17.84590321 65.44355242) (63.09828999 17.93683778 65.42060185) (63.12063411 18.02819527 65.40260375) (63.14351016 18.10834964 65.38341112) (63.17189183 18.21099203 65.35327933) (63.19456631 18.31273241 65.33227135) (63.21658618 18.39490279 65.31159190) (63.23974248 18.49223782 65.28246806) (63.25938382 18.58985929 65.25554868) (63.28025201 18.67694290 65.23199967) (63.30536379 18.77427439 65.20397524) (63.32437479 18.87419664 65.17594873) (63.34420791 18.96306248 65.15172650) (63.36318508 19.04855547 65.12594991) (63.38260760 19.13392967 65.09615707) (63.40503479 19.23305985 65.05988711) (63.42593016 19.33517585 65.02920393) (63.44000031 19.42406072 64.99781830) (63.45241932 19.51987632 64.95861957) (63.46658528 19.62661741 64.92217738) (63.47606781 19.72573205 64.89045416) (63.47778327 19.81297949 64.85513852) (63.47730837 19.89545121 64.81681155) (63.47849658 19.98215641 64.77352728) (63.47840097 20.07774697 64.72666803) (63.47635955 20.16964521 64.68317626) (63.47367648 20.24852642 64.64338792) (63.47059963 20.32543175 64.59681999) (63.46443184 20.41009357 64.54243620) (63.45815873 20.48622443 64.49420354) (63.45431314 20.56323331 64.43819540) (63.44492146 20.64663621 64.37834940) (63.43551898 20.72145201 64.32081728) (63.42369630 20.80491767 64.25376482) (63.40984355 20.89368560 64.19023305) (63.39466229 20.96546053 64.13569711) (63.37875013 21.03394647 64.07469253) (63.35913392 21.11719173 64.00269254) (63.33973372 21.20263158 63.93858881) (63.31994753 21.28099249 63.87700216) (63.29620617 21.35679557 63.81552144) (63.26831110 21.42970475 63.74953811) (63.23016269 21.51228027 63.67373923) (63.19117032 21.59065884 63.61090068) (63.15496824 21.65928619 63.54982384) (63.11875729 21.73296843 63.49028584) (63.08048864 21.80154990 63.42860302) (63.04088085 21.86934012 63.36851230) (63.00731351 21.94299363 63.30766394) (62.96967702 22.01482480 63.24849567) (62.93619399 22.07736351 63.19274000) (62.89911989 22.14163293 63.12944310) (62.85537734 22.21273228 63.05911447) (62.81310887 22.28394939 62.99560692) (62.77437690 22.34407854 62.93784699) (62.73414476 22.40279230 62.87501992) (62.69556656 22.46627497 62.81192778) (62.66045651 22.52573632 62.75138414) (62.62362095 22.58573399 62.68489165) (62.58005092 22.64641033 62.61316663) (62.53610549 22.70400469 62.54437045) (62.49705847 22.76324219 62.47744741) (62.45332383 22.82715891 62.40348102) (62.40087007 22.89352836 62.32708656) (62.35313425 22.95199730 62.26376027) (62.30863982 22.99888943 62.20212895) (62.25851487 23.04880181 62.13191515) (62.20620212 23.10192644 62.06006220) (62.15343138 23.15327606 61.98960907) (62.09405536 23.20535982 61.91376024) (62.03232437 23.26163309 61.84150014) (61.97976902 23.31142679 61.78059406) (61.92713146 23.35996434 61.71466878) (61.87147073 23.41307087 61.64779486) (61.81961196 23.46197931 61.58376966) (61.76027650 23.51526652 61.51043139) (61.69920156 23.56672131 61.44429734) (61.64790615 23.60617510 61.38624766) (61.58589437 23.65149162 61.31151814))
		spline 3 7 ((62.32501368 16.04329330 65.38453761) (62.35230616 16.13643739 65.39018388) (62.38186349 16.23696149 65.39445660) (62.41683907 16.33645273 65.40367916) (62.44736011 16.41763516 65.41047216) (62.47559132 16.49955594 65.41080359) (62.50760573 16.60367660 65.41011456) (62.53470531 16.70273902 65.41630372) (62.55942293 16.78644832 65.41710514) (62.59020987 16.88278391 65.41520223) (62.62195811 16.97813818 65.41680187) (62.64958547 17.06571090 65.41531042) (62.67673112 17.16149603 65.41172483) (62.70023638 17.26084163 65.40977591) (62.71885574 17.35256600 65.40767539) (62.73870978 17.44819904 65.40187381) (62.76110303 17.54612654 65.39815310) (62.77633719 17.64040147 65.39279474) (62.79470414 17.73605911 65.38645457) (62.81817323 17.82055713 65.38031788) (62.83661983 17.89087700 65.37017942) (62.85658393 17.97804984 65.34805020) (62.88040732 18.07533033 65.32875681) (62.90335581 18.15565587 65.30943811) (62.93032989 18.25290823 65.28065111) (62.95304899 18.35481266 65.25958962) (62.97478999 18.43579971 65.23916236) (62.99613544 18.52550743 65.21223461) (63.01598802 18.62409114 65.18504576) (63.03823917 18.71705891 65.15985753) (63.06199392 18.80867114 65.13346306) (63.08026373 18.90512408 65.10639818) (63.10072898 18.99692226 65.08133104) (63.11930878 19.08062240 65.05609250) (63.13839233 19.16448387 65.02680768) (63.16063578 19.26274499 64.99080805) (63.18025188 19.35841172 64.96222428) (63.19242367 19.43610559 64.93501125) (63.20447027 19.52921496 64.89682920) (63.21854153 19.63501472 64.86063243) (63.22679424 19.72078694 64.83368947) (63.22790322 19.79366311 64.80443515) (63.22740207 19.87287885 64.76760457) (63.22858998 19.95938987 64.72441138) (63.22850706 20.05189410 64.67903764) (63.22653299 20.14023780 64.63728628) (63.22397421 20.21514687 64.59958638) (63.22114640 20.28634760 64.55645281) (63.21525569 20.36676931 64.50477650) (63.20893712 20.44363833 64.45600651) (63.20534226 20.51718329 64.40246178) (63.19658199 20.59417779 64.34737177) (63.18757150 20.66585238 64.29227398) (63.17602147 20.74742076 64.22664878) (63.16296314 20.83142203 64.16662566) (63.14911004 20.89650081 64.11745860) (63.13376775 20.96246890 64.05861191) (63.11392031 21.04672092 63.98571768) (63.09468735 21.13146181 63.92212250) (63.07652403 21.20355056 63.86552430) (63.05550280 21.27060083 63.81147789) (63.03127839 21.33390601 63.75423845) (62.99649652 21.40902901 63.68484300) (62.95929813 21.48379845 63.62504776) (62.92286962 21.55286917 63.56359497) (62.88749546 21.62492974 63.50543854) (62.85186549 21.68868834 63.44803800) (62.80920017 21.76212572 63.38311130) (62.77405717 21.83891919 63.31966345) (62.73874547 21.90618828 63.26439288) (62.70646110 21.96651635 63.21062018) (62.67151517 22.02709827 63.15093495) (62.62856334 22.09687228 63.08182712) (62.58716031 22.16667113 63.01962890) (62.55058495 22.22343852 62.96518097) (62.50916060 22.28397283 62.90047691) (62.46810319 22.35144893 62.83336121) (62.43284165 22.41115618 62.77252328) (62.39886282 22.46665254 62.71110967) (62.35913443 22.52186571 62.64585511) (62.31374627 22.58145556 62.57473628) (62.27268229 22.64362022 62.50446426) (62.23257831 22.70238625 62.43645360) (62.18443098 22.76314950 62.36632265) (62.14004158 22.81765483 62.30766481) (62.09895522 22.86087888 62.25080596) (62.04967259 22.90993632 62.18176766) (61.99817399 22.96224410 62.11102434) (61.94886143 23.01029745 62.04521705) (61.89219832 23.05990201 61.97274972) (61.82990730 23.11667216 61.89978954) (61.77636310 23.16738021 61.83769584) (61.72319739 23.21641077 61.77112461) (61.66724701 23.26979057 61.70389673) (61.61627546 23.31787089 61.64096257) (61.56067222 23.36781266 61.57207136) (61.50383482 23.41573455 61.51077164) (61.45406846 23.45398564 61.45443354) (61.39345605 23.49824449 61.38128063))
		spline 5 6 ((61.49731207 23.93613722 61.25183357) (61.49131172 23.89487296 61.23332016) (61.48267167 23.85427044 61.21779379) (61.47350005 23.81675354 61.20461566) (61.46526122 23.78442651 61.19359085) (61.45896279 23.75881309 61.18463012) (61.45546490 23.74175004 61.17797439))
		spline 6 7 ((61.45546406 23.74174856 61.17797433) (61.44249134 23.72955508 61.18351593) (61.42359543 23.71041612 61.19077243) (61.39990623 23.68602979 61.19963751) (61.37219898 23.65803924 61.21032103) (61.34150416 23.62877173 61.22318664) (61.30877650 23.60124392 61.23908035))
		spline 8 9 ((62.01650437 16.11708116 65.65916785) (62.02852261 16.11622098 65.61516430) (62.04363159 16.11431110 65.57354274) (62.05901832 16.11208451 65.53581224) (62.07267972 16.11003534 65.50350700) (62.08322868 16.10850090 65.47777032) (62.08941849 16.10775000 65.46019749))
		spline 8 10 ((62.01271142 16.11548112 65.70400000) (62.04085455 16.21152818 65.70980751) (62.07160916 16.31571244 65.71436367) (62.10853647 16.42056584 65.72410777) (62.14324161 16.51325128 65.73167225) (62.17287632 16.59862577 65.73228267) (62.19900939 16.68413581 65.73119807) (62.22481670 16.77871573 65.73723452) (62.25496772 16.88133082 65.73820378) (62.28719026 16.98217353 65.73629540) (62.31863331 17.07659129 65.73789540) (62.34669003 17.16522384 65.73648254) (62.37078772 17.25007179 65.73321041) (62.39099151 17.33581111 65.73156339) (62.41009328 17.42959154 65.72944054) (62.43117564 17.53108289 65.72335945) (62.45208505 17.62186188 65.71997921) (62.46715257 17.71502467 65.71472058) (62.48926792 17.82935783 65.70708530) (62.51810990 17.93624482 65.69871756) (62.54192021 18.02636053 65.68576832) (62.56308398 18.11833628 65.66265709) (62.58829092 18.22104481 65.64218192) (62.61598797 18.31925057 65.61839846) (62.63944818 18.40347515 65.59292893) (62.66023523 18.49759574 65.57371236) (62.68575014 18.59408346 65.54932718) (62.70597356 18.67876604 65.52387203) (62.72498578 18.77352168 65.49775683) (62.74937513 18.87568320 65.47001217) (62.77193515 18.96214390 65.44509108) (62.78874919 19.05188501 65.41989538) (62.81074343 19.15093475 65.39276086) (62.83171173 19.24538875 65.36421582) (62.85286229 19.33845631 65.33177684) (62.87297361 19.42724355 65.29901366) (62.89049924 19.51253772 65.27381469) (62.90388944 19.59588582 65.24487941) (62.91525596 19.68412655 65.20853015) (62.92714428 19.77310029 65.17815411) (62.93515781 19.85334996 65.15333809) (62.93703272 19.93363282 65.12161465) (62.93662973 20.02428546 65.07957810) (62.93783308 20.11458960 65.03452984) (62.93774440 20.19963734 64.99277162) (62.93582461 20.28614890 64.95192669) (62.93285054 20.37470998 64.90713577) (62.92959931 20.45730356 64.85740853) (62.92379743 20.53698911 64.80623513) (62.91665743 20.62443134 64.75043217) (62.91272920 20.70307493 64.69336022) (62.90435112 20.77705188 64.64055804) (62.89468872 20.85420913 64.58130929) (62.88421668 20.92782952 64.52178035) (62.87279986 21.00152123 64.46939873) (62.85734981 21.07554308 64.41346507) (62.84045106 21.14847432 64.34872792) (62.82324551 21.22113617 64.28553009) (62.80597831 21.29730773 64.22862245) (62.78832102 21.36787530 64.17331710) (62.76761605 21.43479051 64.11963851) (62.74443344 21.49624921 64.06434273) (62.71718387 21.55410797 64.01001455) (62.68351336 21.62169870 63.95629733) (62.64643241 21.69204390 63.89376593) (62.61172776 21.76281743 63.83670756) (62.57605671 21.82686237 63.77915347) (62.53287747 21.90149185 63.71329739) (62.49834684 21.97716695 63.65083013) (62.46321399 22.04426416 63.59578005) (62.42605917 22.11358276 63.53395628) (62.38990001 22.17643231 63.47217046) (62.35159007 22.23834521 63.41056899) (62.31250433 22.30432169 63.35191855) (62.27151575 22.36812665 63.29073545) (62.22725079 22.43296701 63.22161175) (62.18485449 22.50269337 63.15225821) (62.14541307 22.56926496 63.08427066) (62.10977741 22.62764709 63.01983346) (62.07210627 22.68013958 62.95788750) (62.02664661 22.73986785 62.88663263) (61.98420288 22.80407990 62.81403222) (61.94794423 22.85745168 62.75226709) (61.90799137 22.90737926 62.69431491) (61.86273168 22.96310457 62.63438118) (61.81469329 23.01406986 62.56786696) (61.76505026 23.06350417 62.49832261) (61.71579593 23.11355213 62.43066243) (61.66775534 23.16049220 62.36649715) (61.61774349 23.20395950 62.30247988) (61.56296192 23.25381995 62.23850867) (61.50542824 23.30820518 62.17170577) (61.45034625 23.35902098 62.10280907) (61.39565474 23.41121293 62.03711941) (61.34161542 23.46216492 61.97041833) (61.29195511 23.50675110 61.90865303) (61.23796760 23.55237364 61.85054271) (61.17810571 23.59841621 61.78273884) (61.12288107 23.63859140 61.71578314))
		spline 3 9 ((62.28186604 16.05574354 65.38772225) (62.23937504 16.06748301 65.39947767) (62.19912064 16.07837023 65.41448881) (62.16260078 16.08814170 65.42985495) (62.13132384 16.09647991 65.44351836) (62.10641205 16.10314213 65.45405542) (62.08941966 16.10774973 65.46019629))
		spline 9 11 ((62.08941851 16.10775007 65.46019629) (62.11693515 16.20165908 65.46588470) (62.14812062 16.30741034 65.47051727) (62.18552025 16.41388406 65.48036026) (62.21687703 16.49736202 65.48731727) (62.24377461 16.57524501 65.48772027) (62.27272927 16.66954210 65.48678776) (62.29926348 16.76663759 65.49290730) (62.32629479 16.85830614 65.49373229) (62.35832836 16.95857386 65.49182368) (62.38992172 17.05345251 65.49342340) (62.41652267 17.13766164 65.49204907) (62.44126097 17.22482886 65.48871028) (62.46251259 17.31481462 65.48696602) (62.48077344 17.40480500 65.48495344) (62.50133016 17.50376837 65.47899036) (62.52264008 17.59646536 65.47551858) (62.53729133 17.68756245 65.47036352) (62.55829102 17.79618717 65.46311909) (62.58442315 17.89155992 65.45583938) (62.60335596 17.96352358 65.44564093) (62.62326931 18.05045266 65.42358903) (62.64837142 18.15281280 65.40318669) (62.67307458 18.23969185 65.38218769) (62.69803758 18.32939789 65.35530772) (62.72008176 18.42857492 65.33488498) (62.74304018 18.51454241 65.31315973) (62.76302692 18.59841908 65.28792018) (62.78268691 18.69612546 65.26097760) (62.80643889 18.79551368 65.23400249) (62.82904751 18.88225346 65.20899853) (62.84640096 18.97445414 65.18311546) (62.86775163 19.07041705 65.15685630) (62.88698569 19.15706090 65.13070571) (62.90663802 19.24345402 65.10054809) (62.92801403 19.33783307 65.06586068) (62.94620113 19.42635578 65.03960545) (62.95781417 19.50020332 65.01396606) (62.96941891 19.59012837 64.97698164) (62.98265124 19.68935032 64.94301816) (62.99017019 19.76610362 64.91936008) (62.99123682 19.83409305 64.89240352) (62.99075734 19.91572930 64.85447866) (62.99195068 20.00350927 64.81066283) (62.99187235 20.09169364 64.76737792) (62.98995336 20.17750417 64.72687026) (62.98730987 20.25525754 64.68770630) (62.98446008 20.32757406 64.64399685) (62.97874732 20.40549793 64.59392739) (62.97210790 20.48657753 64.54233227) (62.96852449 20.56014237 64.48880908) (62.96023470 20.63267309 64.43704935) (62.95119488 20.70467623 64.38173233) (62.94017803 20.78237293 64.31906206) (62.92813122 20.86013859 64.26364795) (62.91439990 20.92492571 64.21486072) (62.89879493 20.99208563 64.15502050) (62.87978078 21.07267788 64.08516069) (62.86134644 21.15395321 64.02425061) (62.84422021 21.22219080 63.97074538) (62.82474502 21.28458532 63.92074488) (62.80282921 21.34216808 63.86881028) (62.77254208 21.40712778 63.80823177) (62.73756320 21.47740261 63.75223546) (62.70077967 21.54716740 63.69019489) (62.66608796 21.61790918 63.63316257) (62.63183198 21.67923283 63.57796044) (62.58737159 21.75607344 63.51015243) (62.55162062 21.83411532 63.44569083) (62.51759720 21.89892108 63.39255148) (62.48418313 21.96133555 63.33691216) (62.44991878 22.02079631 63.27836855) (62.40906111 22.08703108 63.21261670) (62.36895126 22.15470172 63.15239010) (62.33191569 22.21224366 63.09725074) (62.28883700 22.27529277 63.02996112) (62.24599070 22.34568418 62.95991873) (62.20913846 22.40800222 62.89634142) (62.17606431 22.46217252 62.83650804) (62.13910159 22.51352674 62.77585513) (62.09292822 22.57421693 62.70346463) (62.05030388 22.63866237 62.63058824) (62.01350088 22.69276745 62.56796997) (61.97058236 22.74666303 62.50553816) (61.92763971 22.79952316 62.44887629) (61.88583409 22.84361491 62.39103911) (61.83686453 22.89235859 62.32243658) (61.78660572 22.94341954 62.25339182) (61.73957312 22.98933551 62.19062336) (61.68674225 23.03541664 62.12299041) (61.62687101 23.08995057 62.05291112) (61.57136421 23.14246913 61.98849003) (61.51722780 23.19240451 61.92073820) (61.46158003 23.24549875 61.85388006) (61.40996651 23.29418127 61.79015847) (61.35847596 23.34042625 61.72618381) (61.30489913 23.38565746 61.66858151) (61.25228818 23.42609203 61.60899958) (61.19435991 23.46831800 61.53891669))
		spline 10 11 ((61.01550623 23.68065479 61.57442644) (61.02741365 23.64888630 61.54392289) (61.04164101 23.62040946 61.51308566) (61.05587760 23.59530500 61.48423457) (61.06845310 23.57401498 61.45927354) (61.07820644 23.55691318 61.43956534) (61.08406332 23.54481059 61.42664613))
		spline 7 11 ((61.24048085 23.56502946 61.28480767) (61.20617513 23.55701214 61.31379612) (61.17346521 23.55265864 61.34338313) (61.14369520 23.55017129 61.37118348) (61.11817180 23.54846214 61.39526867) (61.09786139 23.54681156 61.41426275) (61.08406432 23.54481008 61.42664485))
		spline 12 13 ((62.08146182 16.08059115 65.94780371) (62.09825378 16.07529948 65.95394458) (62.12282164 16.06746349 65.96448164) (62.15365260 16.05760324 65.97814505) (62.18967090 16.04612005 65.99351119) (62.22943534 16.03356066 66.00852233) (62.27154264 16.02051169 66.02027775))
		spline 12 8 ((62.08146069 16.08059155 65.94780251) (62.07584447 16.08329998 65.93022968) (62.06613557 16.08770137 65.90449300) (62.05352862 16.09334919 65.87218776) (62.03937342 16.09977878 65.83445726) (62.02562298 16.10632510 65.79283570) (62.01504104 16.11208707 65.74883215))