/*---------------------------------------------------------------------------*\
| =========                |                                                 |
| \      /  F ield         | OpenFOAM: The Open Source CFD Toolbox           |
|  \    /   O peration     | Script: /home/mauricio/Documents/Unesp/CFD/classyGen/genCylinder.py|
|   \  /    A nd           | Time: 2026-03-25 11:55:19.986842                |
|    \/     M anipulation  |                                                 |
\*---------------------------------------------------------------------------*/
FoamFile
{
    version     2.0;
    format      ascii;
    class       dictionary;
    object      blockMeshDict;
}
// * * * * * * * * * * * * * * * * * * * * * * * * * * * * * * * * * * * * * //

vertices
(
	(62.31980000 16.02550000 65.70400000) // 0
	(62.62688858 15.93551888 65.70400000) // 1
	(62.55813933 15.97040851 65.46019629) // 2
	(62.32501368 16.04329330 65.38453761) // 3
	(58.57140000 24.71750000 59.11320000) // 4
	(58.73039997 24.58704982 58.86804340) // 5
	(58.60651807 24.39781117 58.98731621) // 6
	(58.45841616 24.42905353 59.19340778) // 7
	(62.01271142 16.11548112 65.70400000) // 8
	(62.08941851 16.10775007 65.46019629) // 9
	(58.41240003 24.84795018 59.35835660) // 10
	(58.36383045 24.59692217 59.36150792) // 11
	(62.08146067 16.08059149 65.94780371) // 12
	(62.31458632 16.00770670 66.02346239) // 13
	(58.53628193 25.03718883 59.23908379) // 14
	(58.68438384 25.00594647 59.03299222) // 15
	(62.55018149 15.94324993 65.94780371) // 16
	(58.77896955 24.83807783 58.86489208) // 17
	(62.70366073 15.91302360 65.70400000) // 18
	(62.59583881 15.96169438 65.42163248) // 19
	(58.77014997 24.55443727 58.80675425) // 20
	(58.61207290 24.34724417 58.96740446) // 21
	(62.32631710 16.04774163 65.30467202) // 22
	(58.43017020 24.35694192 59.21345972) // 23
	(62.05297776 16.12076003 65.42163248) // 24
	(58.33099800 24.57784969 59.40078420) // 25
	(61.93593927 16.13797640 65.70400000) // 26
	(58.37265003 24.88056273 59.41964575) // 27
	(62.04376119 16.08930562 65.98636752) // 28
	(58.53072710 25.08775583 59.25899554) // 29
	(62.31328290 16.00325837 66.10332798) // 30
	(58.71262980 25.07805808 59.01294028) // 31
	(62.58662224 15.93023997 65.98636752) // 32
	(58.81180200 24.85715031 58.82561580) // 33
);

blocks
(
	hex ( 0 1 2 3 4 5 6 7 )  ( 10 10 10 ) simpleGrading ( 1.0 1 1 ) // 0 
	hex ( 8 0 3 9 10 4 7 11 )  ( 10 10 10 ) simpleGrading ( 1.0 1 1 ) // 1 
	hex ( 12 13 0 8 14 15 4 10 )  ( 10 10 10 ) simpleGrading ( 1.0 1.0 1 ) // 2 
	hex ( 13 16 1 0 15 17 5 4 )  ( 10 10 10 ) simpleGrading ( 1.0 1.0 1 ) // 3 
	hex ( 1 18 19 2 5 20 21 6 )  ( 10 10 10 ) simpleGrading ( 1 1 1 ) // 4 
	hex ( 2 19 22 3 6 21 23 7 )  ( 10 10 10 ) simpleGrading ( 1 1 1 ) // 5 
	hex ( 3 22 24 9 7 23 25 11 )  ( 10 10 10 ) simpleGrading ( 1 1 1 ) // 6 
	hex ( 9 24 26 8 11 25 27 10 )  ( 10 10 10 ) simpleGrading ( 1 1.0 1 ) // 7 
	hex ( 8 26 28 12 10 27 29 14 )  ( 10 10 10 ) simpleGrading ( 1 1 1 ) // 8 
	hex ( 12 28 30 13 14 29 31 15 )  ( 10 10 10 ) simpleGrading ( 1 1.0 1 ) // 9 
	hex ( 13 30 32 16 15 31 33 17 )  ( 10 10 10 ) simpleGrading ( 1 1.0 1 ) // 10 
	hex ( 16 32 18 1 17 33 20 5 )  ( 10 10 10 ) simpleGrading ( 1 1.0 1 ) // 11 
);

edges
(
		spline 0 4 ((62.34790000 16.12140000 65.70980000) (62.85250000 17.94930000 65.68440000) (63.24420000 19.73200000 65.16450000) (63.11940000 21.32920000 64.17250000) (62.44110000 22.64640000 62.98930000) (61.49630000 23.67100000 61.70360000) (60.26500000 24.35170000 60.43060000) (58.79940000 24.68530000 59.27670000) (62.78240000 17.66070000 65.71210000) (63.20510000 19.45450000 65.26650000) (63.17170000 21.10360000 64.36040000) (62.56050000 22.45590000 63.18490000) (61.66290000 23.52220000 61.90050000) (60.47560000 24.25930000 60.61940000) (59.03610000 24.66000000 59.45480000) (62.72360000 17.36540000 65.72740000) (63.14380000 19.17480000 65.36100000) (63.21190000 20.86560000 64.54100000) (62.68390000 22.25600000 63.37420000) (61.82830000 23.36660000 62.09960000) (60.68020000 24.16580000 60.82090000) (59.27970000 24.63260000 59.63160000) (62.65040000 17.06400000 65.73550000) (63.08170000 18.88120000 65.44470000) (63.23540000 20.61420000 64.72560000) (62.80140000 22.03890000 63.56830000) (61.99810000 23.20990000 62.31390000) (60.88370000 24.05990000 61.03920000) (59.52960000 24.58750000 59.82290000) (62.55720000 16.77560000 65.73730000) (63.01550000 18.59600000 65.52420000) (63.25200000 20.35660000 64.88550000) (62.91410000 21.82590000 63.75350000) (62.15070000 23.05240000 62.52550000) (61.07620000 23.95420000 61.25060000) (59.76450000 24.53030000 60.00900000) (62.47480000 16.49250000 65.73090000) (62.94820000 18.31810000 65.59360000) (63.25640000 20.09250000 65.01430000) (63.02070000 21.61580000 63.92790000) (62.28130000 22.87900000 62.72120000) (61.26130000 23.84120000 61.44590000) (59.98300000 24.46000000 60.18810000) (62.37340000 16.20870000 65.71330000) (62.87220000 18.03420000 65.66320000) (63.25280000 19.81610000 65.13830000) (63.10270000 21.39670000 64.11970000) (62.40840000 22.70000000 62.93010000) (61.44600000 23.71000000 61.64740000) (60.20540000 24.37560000 60.37660000) (58.73100000 24.69110000 59.23070000) (62.78220000 17.65900000 65.71220000) (63.20480000 19.45280000 65.26700000) (63.17200000 21.10210000 64.36160000) (62.56140000 22.45450000 63.18630000) (61.66420000 23.52100000 61.90210000) (60.47750000 24.25850000 60.62110000) (59.03840000 24.65960000 59.45640000) (62.68090000 17.17110000 65.73150000) (63.10220000 18.98790000 65.41470000) (63.23080000 20.70680000 64.65900000) (62.75860000 22.12170000 63.50010000) (61.93770000 23.26900000 62.23320000) (60.80740000 24.09820000 60.95710000) (59.43670000 24.60750000 59.75010000) (62.53280000 16.69190000 65.73610000) (62.99610000 18.51620000 65.54820000) (63.25450000 20.28150000 64.92300000) (62.94380000 21.76590000 63.80140000) (62.18960000 23.00400000 62.57700000) (61.12550000 23.92390000 61.30450000) (59.82370000 24.51130000 60.05530000) (62.37340000 16.20870000 65.71330000) (62.87220000 18.03420000 65.66320000) (63.25280000 19.81610000 65.13830000) (63.10270000 21.39670000 64.11970000) (62.40840000 22.70000000 62.93010000) (61.44600000 23.71000000 61.64740000) (60.20540000 24.37560000 60.37660000) (58.73100000 24.69110000 59.23070000) (62.76350000 17.54750000 65.71840000) (63.18250000 19.34510000 65.29980000) (63.19080000 21.01030000 64.43050000) (62.61080000 22.37690000 63.26000000) (61.72940000 23.45890000 61.98070000) (60.55880000 24.22270000 60.70330000) (59.13850000 24.64840000 59.52640000) (62.65100000 17.06610000 65.73540000) (63.08220000 18.88340000 65.44410000) (63.23530000 20.61640000 64.72410000) (62.80040000 22.04100000 63.56650000) (61.99650000 23.21150000 62.31170000) (60.88160000 24.06100000 61.03670000) (59.52680000 24.58830000 59.82060000) (62.50380000 16.58620000 65.72980000) (62.96870000 18.41170000 65.57390000) (63.25670000 20.17990000 64.97110000) (62.98570000 21.68660000 63.87120000) (62.24210000 22.93730000 62.65430000) (61.19820000 23.87700000 61.38190000) (59.91030000 24.48100000 60.12840000))
		spline 1 2 ((62.62455896 15.93891293 65.65916785) (62.61397702 15.94467490 65.61516430) (62.60022658 15.95122122 65.57354274) (62.58607138 15.95765081 65.53581224) (62.57346443 15.96329863 65.50350700) (62.56375553 15.96770002 65.47777032) (62.55813931 15.97040845 65.46019749))
		spline 1 5 ((62.65494545 16.03127182 65.70979249) (63.16307979 17.87223947 65.68303168) (63.56125572 19.69089971 65.15084589) (63.43282169 21.36109227 64.11637755) (62.73678693 22.72353504 62.89432934) (61.75463240 23.78962636 61.55665729) (60.48984822 24.48950634 60.24934690) (58.97154971 24.83596043 59.05294587) (63.05464362 17.60250126 65.55431433) (63.46781954 19.35645597 65.11233836) (63.43635894 21.02770937 64.19731640) (62.80952032 22.42056055 62.98706167) (61.90005603 23.49776289 61.68705248) (60.69188503 24.24808383 60.38382627) (59.22108705 24.65740430 59.19370030) (62.94910705 17.30979534 65.50727573) (63.35499106 19.05889094 65.15037372) (63.42840928 20.73826965 64.34273071) (62.89199309 22.15977588 63.15095532) (62.02493149 23.28102479 61.86208591) (60.87860297 24.07894208 60.58533268) (59.46053509 24.55346627 59.37973392) (62.84989850 16.99753148 65.49428996) (63.27097493 18.77159770 65.21111418) (63.42737611 20.47997121 64.50759127) (62.98338824 21.93025498 63.32855734) (62.18755036 23.08954191 62.08581560) (61.07573045 23.94148527 60.81225891) (59.70177339 24.47897348 59.57596211) (62.74908009 16.71722399 65.48795230) (63.19472434 18.48570929 65.28313031) (63.43254793 20.23589812 64.65048192) (63.08690689 21.70912808 63.51080245) (62.32635721 22.92850914 62.28844389) (61.25504201 23.82867611 61.01680674) (59.92709230 24.41153033 59.76028830) (62.66170285 16.43091840 65.47856088) (63.12436345 18.21128069 65.34874070) (63.43268720 19.97305304 64.77543759) (63.19283685 21.49045660 63.68903197) (62.46154759 22.74178141 62.49518703) (61.43012568 23.71635689 61.20442104) (60.14318818 24.33721186 59.93978001) (62.56436901 16.16394899 65.46045976) (63.04911787 17.93648623 65.41510307) (63.42737757 19.71663312 64.88924376) (63.27755050 21.26124299 63.88844538) (62.58763066 22.56087188 62.70444598) (61.61927396 23.57919432 61.41231276) (60.37216267 24.24822449 60.13501008) (58.89034380 24.56545991 58.98326491) (62.96769140 17.61035473 65.45602315) (63.37510650 19.34149362 65.02000489) (63.34596586 20.95547573 64.13657288) (62.73053673 22.32487352 62.94757475) (61.83147467 23.39010849 61.66275381) (60.64427359 24.12723228 60.38161021) (59.19655292 24.53102440 59.20970997) (62.86420705 17.11653578 65.47494344) (63.27333429 18.88366967 65.16520232) (63.40362194 20.55884558 64.43396207) (62.92286222 21.99822065 63.25480268) (62.11144534 23.13094104 62.00265222) (60.98164966 23.96241228 60.72558596) (59.59806304 24.47780442 59.50608970) (62.71925707 16.64852343 65.47967801) (63.16549740 18.40506721 65.30050256) (63.42479079 20.16618259 64.67784099) (63.10789701 21.64152825 63.55644319) (62.35701205 22.87196519 62.33837893) (61.29576478 23.78990815 61.06900883) (59.98129216 24.38220840 59.80852061) (62.56039488 16.16542375 65.45725297) (63.04482747 17.93680551 65.41197486) (63.42290038 19.71595934 64.88643157) (63.27322978 21.25860032 63.88678785) (62.58366142 22.55746931 62.70345394) (61.61617991 23.57489686 61.41248312) (60.36951164 24.24367543 60.13563677) (58.88875330 24.56064392 58.98474247) (62.94761407 17.49855871 65.46128765) (63.34981550 19.22550823 65.05464019) (63.36166839 20.87070792 64.19872846) (62.77466538 22.25229853 63.01500488) (61.89681078 23.32563117 61.74276503) (60.73150341 24.08699098 60.47058431) (59.29964087 24.51788304 59.28268102) (62.83203474 17.00470323 65.47877409) (63.25183146 18.77417788 65.19571382) (63.40719544 20.47333419 64.49522420) (62.96377813 21.91795205 63.32039679) (62.17023284 23.07266281 62.08161060) (61.06086336 23.92191219 60.81104711) (59.68989843 24.45767073 59.57824716) (62.68893192 16.53832553 65.47321823) (63.14113988 18.31357399 65.32283074) (63.42695468 20.06321473 64.72656392) (63.14911490 21.56336831 63.62521317) (62.41587128 22.79713114 62.42504854) (61.36577394 23.74461793 61.14358517) (60.07245909 24.35027749 59.88546779))
		spline 2 3 ((62.55813818 15.97040885 65.46019629) (62.54134622 15.97570052 65.45405542) (62.51677836 15.98353651 65.44351836) (62.48594740 15.99339676 65.42985495) (62.44992910 16.00487995 65.41448881) (62.41016466 16.01743934 65.39947767) (62.36805736 16.03048831 65.38772225))
		spline 2 6 ((62.58559014 16.06409305 65.46587323) (63.07740553 17.84590321 65.44355242) (63.46658528 19.62661741 64.92217738) (63.33973372 21.20263158 63.93858881) (62.66045651 22.52573632 62.75138414) (61.69920156 23.56672131 61.44429734) (60.46535044 24.24795821 60.16910756) (58.98599738 24.58544735 59.00376810) (62.86912544 17.62467279 65.37974222) (63.27257145 19.33874076 64.94817884) (63.24266962 20.89822326 64.09195138) (62.63705159 22.24249432 62.92436435) (61.74757812 23.29510028 61.65445877) (60.57931810 24.01873238 60.39434283) (59.15493221 24.41519974 59.24212020) (62.72955339 17.34973575 65.38243603) (63.12873373 19.07118964 65.03188170) (63.19912207 20.65089537 64.27077861) (62.68361087 22.01329763 63.12848384) (61.84218201 23.10280879 61.87710856) (60.72677083 23.87906112 60.63410352) (59.36011712 24.33711895 59.47189717) (62.62530457 17.06296681 65.39104375) (63.03623748 18.79681282 65.11289747) (63.18700499 20.42057153 64.44373675) (62.75878814 21.80887361 63.31422709) (61.99024005 22.92916719 62.11288193) (60.90859120 23.75790886 60.87348116) (59.57383305 24.27974753 59.67252444) (62.52152471 16.78624994 65.39394187) (62.95663660 18.51337692 65.19406445) (63.18830061 20.19341571 64.58785217) (62.86079069 21.58978785 63.50714634) (62.11911270 22.78097608 62.31428387) (61.08038934 23.65332223 61.08108312) (59.79287571 24.21908779 59.86195329) (62.43447139 16.50557871 65.38814133) (62.88716035 18.24860511 65.26084547) (63.18712690 19.94260792 64.71096098) (62.96354817 21.37735620 63.68467340) (62.24272357 22.61010759 62.50791688) (61.25558241 23.54242873 61.27274114) (60.00266059 24.14858584 60.04006069) (62.33775163 16.24202513 65.37139419) (62.81135816 17.97366723 65.32866299) (63.18199075 19.70868390 64.81778668) (63.03807967 21.17541896 63.86252327) (62.36739304 22.43153356 62.71673375) (61.43112640 23.41524021 61.46802219) (60.21765668 24.06547650 60.22509374) (58.78008011 24.37177664 59.10861524) (62.72936701 17.64739664 65.37109152) (63.13230510 19.36066962 64.94213474) (63.10391331 20.87835669 64.10746600) (62.51062022 22.19540449 62.96365255) (61.63151157 23.23726987 61.70791031) (60.48287852 23.94883275 60.46826604) (59.08270727 24.33934337 59.33493596) (62.63018170 17.17469477 65.38989249) (63.03197599 18.91116756 65.08536480) (63.15780792 20.50542673 64.38807212) (62.69520969 21.88188699 63.25978283) (61.91134868 22.97844340 62.04836648) (60.80998707 23.78928572 60.80267775) (59.47313237 24.28818274 59.62364795) (62.48811421 16.71717439 65.39456619) (62.92636069 18.44251182 65.21806755) (63.17778816 20.13168043 64.62142025) (62.87890865 21.52778696 63.55979651) (62.14430003 22.73310198 62.36761248) (61.11583135 23.62167929 61.13761646) (59.83676192 24.19781167 59.91095524) (62.33232301 16.24370858 65.37217241) (62.80586660 17.97514852 65.32944296) (63.17638318 19.70943836 64.81882430) (63.03259616 21.17510982 63.86423141) (62.36207596 22.43078419 62.71877587) (61.42655290 23.41367241 61.47106870) (60.21347942 24.06366873 60.22856432) (58.77686872 24.36971451 59.11285102) (62.71009289 17.54216165 65.37722536) (63.10798337 19.25162288 64.97577800) (63.11752729 20.80300553 64.16415236) (62.55155543 22.12804807 63.02795743) (61.69684936 23.17322333 61.78936195) (60.56796389 23.91020459 60.55652262) (59.18824566 24.32673968 59.41089692) (62.60062874 17.07261497 65.39378436) (63.01119012 18.80563313 65.11517620) (63.16095227 20.42408366 64.44702998) (62.73356437 21.80666956 63.32174870) (61.96614067 22.92414814 62.12252237) (60.88594199 23.75072190 60.88507678) (59.55454314 24.27058018 59.68806551) (62.45800226 16.60775406 65.38815846) (62.90226042 18.35227513 65.24023037) (63.17986248 20.03281487 64.66820907) (62.92036262 21.44916808 63.62904702) (62.19844272 22.66439487 62.44718219) (61.18837087 23.57484080 61.21491449) (59.92727846 24.16615018 59.98746640))
		spline 3 7 ((62.35230616 16.13643739 65.39018388) (62.83661983 17.89087700 65.37017942) (63.21854153 19.63501472 64.86063243) (63.09468735 21.13146181 63.92212250) (62.43284165 22.41115618 62.77252328) (61.50383482 23.41573455 61.51077164) (60.30267620 24.07795807 60.26921271) (58.87175372 24.40380002 59.14282432) (62.62379499 17.67169134 65.43438856) (63.03079006 19.40086167 65.00355709) (63.00003441 20.91038010 64.17172834) (62.41178724 22.21160840 63.04135165) (61.53669993 23.24906240 61.79155325) (60.39521952 23.95529412 60.56007542) (59.00682191 24.34182752 59.43721980) (62.50589384 17.40047938 65.49550894) (62.91286722 19.15494570 65.14037394) (62.97864746 20.71159724 64.38519113) (62.47542806 22.03420484 63.27547636) (61.64985847 23.10652268 62.04557772) (60.54282001 23.87693645 60.81170300) (59.20423757 24.32455718 59.67420328) (62.41801830 17.12911471 65.52536000) (62.83285434 18.88022757 65.24351628) (62.98001065 20.49471233 64.57427592) (62.56357633 21.84613542 63.47512426) (61.79835054 22.96240653 62.27858515) (60.72428513 23.78260782 61.04899535) (59.41538634 24.29277039 59.87279686) (62.31857364 16.84793090 65.53673654) (62.75914541 18.59802752 65.33268443) (62.98798509 20.26347723 64.73050234) (62.67144052 21.63328798 63.67339389) (61.93365313 22.82063698 62.48579409) (60.90284739 23.68547586 61.26227086) (59.63908913 24.24128016 60.06503254) (62.23505351 16.57121897 65.53411345) (62.69205470 18.33385834 65.40244232) (62.98934245 20.01553944 64.85568935) (62.77367561 21.42870425 63.84806184) (62.05050471 22.66388182 62.66774252) (61.08498240 23.57455529 61.46048436) (59.84857360 24.17473401 60.24244021) (62.13572000 16.29711780 65.51813209) (62.61555947 18.05259611 65.47294432) (62.98543922 19.77481675 64.96737925) (62.84317580 21.24220667 64.01396922) (62.17543686 22.48734951 62.87617464) (61.25323677 23.45457421 61.64744380) (60.05469758 24.09661257 60.41966731) (58.63596716 24.39832232 59.31816423) (62.52748016 17.69244109 65.52141348) (62.93950154 19.44338553 65.08831565) (62.90881836 20.95554755 64.25362868) (62.32572520 22.24462685 63.13328446) (61.45409282 23.28011249 61.88699435) (60.31777402 23.98400260 60.66032745) (58.93830406 24.36853495 59.54393251) (62.43113543 17.23037453 65.54043930) (62.83904935 18.99158581 65.23266114) (62.96233462 20.59088974 64.52903403) (62.51127580 21.93094608 63.43050343) (61.72942584 23.02633505 62.22155558) (60.63654024 23.82920925 60.98627052) (59.32307525 24.31878581 59.82841686) (62.28778997 16.76839427 65.54500130) (62.73532136 18.53077723 65.36331624) (62.98369168 20.20050490 64.77299117) (62.69467416 21.57826599 63.72977743) (61.96283021 22.78107005 62.54125512) (60.94256613 23.66188414 61.32131929) (59.68322322 24.22961964 60.11294067) (62.13258086 16.29784890 65.52235861) (62.61265415 18.05421779 65.47709455) (62.98256866 19.77647913 64.97155106) (62.84031132 21.24444427 64.01786497) (62.17243898 22.48977016 62.87984253) (61.25033805 23.45681734 61.65126536) (60.05187503 24.09879286 60.42358820) (58.63334969 24.40043626 59.32223692) (62.50940520 17.58944632 65.52846228) (62.91754341 19.34220625 65.12038530) (62.92392046 20.87826871 64.31326924) (62.36930491 22.17542427 63.20094366) (61.51933726 23.21783920 61.96791971) (60.39810427 23.94893810 60.74368944) (59.04254217 24.35743702 59.61877227) (62.40396248 17.13603351 65.54439799) (62.81952243 18.89072215 65.26148872) (62.96598478 20.50746868 64.58992370) (62.54944540 21.85699863 63.49189917) (61.78298653 22.97381252 62.29390500) (60.70802605 23.79352229 61.06367701) (59.40005414 24.30261267 59.88928942) (62.25865810 16.66231733 65.53871991) (62.70920260 18.43196005 65.38775320) (62.98576311 20.10385577 64.81875016) (62.73667182 21.49871843 63.79988744) (62.01112345 22.71987411 62.61215957) (61.01774669 23.61345496 61.40140935) (59.77038823 24.19916655 60.18666322))
		spline 5 6 ((58.71295922 24.54787075 58.88174336) (58.69154574 24.51293965 58.90181253) (58.66935429 24.48148873 58.92378211) (58.64836229 24.45369606 58.94504718) (58.63013651 24.43010662 58.96364344) (58.61578983 24.41117139 58.97819136) (58.60651850 24.39781225 58.98731591))
		spline 6 7 ((58.60651748 24.39781166 58.98731713) (58.59559945 24.39944273 59.00234438) (58.57906339 24.40043808 59.02474036) (58.55815240 24.40129284 59.05296200) (58.53393898 24.40282554 59.08577452) (58.50791450 24.40626767 59.12148392) (58.48185592 24.41362210 59.15820385))
		spline 8 9 ((62.01650437 16.11708116 65.65916785) (62.02852261 16.11622098 65.61516430) (62.04363159 16.11431110 65.57354274) (62.05901832 16.11208451 65.53581224) (62.07267972 16.11003534 65.50350700) (62.08322868 16.10850090 65.47777032) (62.08941849 16.10775000 65.46019749))
		spline 8 10 ((62.04085455 16.21152818 65.70980751) (62.54192021 18.02636053 65.68576832) (62.92714428 19.77310029 65.17815411) (62.80597831 21.29730773 64.22862245) (62.14541307 22.56926496 63.08427066) (61.23796760 23.55237364 61.85054271) (60.04015178 24.21389366 60.61185310) (58.62725029 24.53463957 59.50045413) (62.51015638 17.71889874 65.86988567) (62.94238046 19.55254403 65.42066164) (62.90704106 21.17949063 64.52348360) (62.31147968 22.49123945 63.38273833) (61.42574397 23.54663711 62.11394752) (60.25931497 24.27051617 60.85497373) (58.85111295 24.66259570 59.71589970) (62.49809295 17.42100466 65.94752427) (62.93260894 19.29070906 65.57162628) (62.99539072 20.99293035 64.73926929) (62.47580691 22.35222412 63.59744468) (61.63166851 23.45217521 62.33711409) (60.48179703 24.25265792 61.05646732) (59.09886491 24.71173373 59.88346608) (62.45090150 17.13046852 65.97671004) (62.89242507 18.99080230 65.67828582) (63.04342389 20.74842879 64.94360873) (62.61941176 22.14754502 63.80804266) (61.80864964 23.33025809 62.54198440) (60.69166955 24.17831473 61.26614109) (59.35742661 24.69602652 60.06983789) (62.36531991 16.83397601 65.98664770) (62.83627566 18.70629071 65.76526969) (63.07145207 20.47730188 65.12051808) (62.74129311 21.94267192 63.99619755) (61.97504279 23.17629086 62.76255611) (60.89735799 24.07972389 61.48439326) (59.60190770 24.64906967 60.25771170) (62.28789715 16.55408160 65.98323912) (62.77203655 18.42491931 65.83845930) (63.08011280 20.21194696 65.25316241) (62.84856315 21.74114340 64.16676803) (62.10105241 23.01621859 62.94721297) (61.09247432 23.96604311 61.68737896) (59.82281182 24.58278814 60.43641999) (62.18243099 16.25345101 65.96614024) (62.69528213 18.13191377 65.91129693) (63.07822243 19.91556688 65.38735624) (62.92784950 21.53215701 64.35095462) (62.22916934 22.83912812 63.15575402) (61.27272604 23.84080568 61.88248724) (60.03863733 24.50297551 60.61818992) (58.57165620 24.81674009 59.47813509) (62.59670860 17.70764527 65.96837685) (63.03449350 19.56410638 65.51399511) (62.99803414 21.24872427 64.58662712) (62.39226327 22.58412648 63.42502525) (61.49692533 23.65189151 62.14144619) (60.31072641 24.38976772 60.86058979) (58.88024708 24.78817560 59.70309003) (62.49759295 17.22566422 65.98805656) (62.93106571 19.09213033 65.66419768) (63.05797806 20.85475442 64.88403793) (62.59433778 22.24517935 63.74539732) (61.76395466 23.40705896 62.46374778) (60.63315034 24.23398772 61.18861404) (59.27533696 24.73719558 59.99411030) (62.34634293 16.73527657 65.99252199) (62.82670260 18.62733279 65.79589744) (63.08420921 20.39681741 65.16815901) (62.77970299 21.89027175 64.04635681) (62.02218795 23.13603481 62.81562107) (60.95523522 24.05789185 61.53999117) (59.66610784 24.64039160 60.30207939) (62.18640512 16.25197625 65.96934703) (62.69957253 18.13159449 65.91442514) (63.08269962 19.91624066 65.39016843) (62.93217022 21.53479968 64.35261215) (62.23313858 22.84253069 63.15674606) (61.27582009 23.84510314 61.88231688) (60.04128836 24.50752457 60.61756323) (58.57324670 24.82155608 59.47665753) (62.57938593 17.59644129 65.97551235) (63.01518450 19.46469177 65.54495981) (63.01993161 21.14989208 64.66227154) (62.44693462 22.50150147 63.50499512) (61.56198922 23.59216883 62.21863497) (60.38609659 24.35840902 60.93601569) (58.97735913 24.77891696 59.77011898) (62.46996526 17.12749677 65.99202591) (62.91256854 18.99262212 65.69248618) (63.06340456 20.75946581 64.95297580) (62.63702187 22.16404795 63.81260321) (61.82276716 23.35033719 62.54178940) (60.70233664 24.20008781 61.26235289) (59.36370157 24.71892927 60.06295284) (62.31866808 16.63407447 65.98638177) (62.79626012 18.50982601 65.82496926) (63.08644532 20.29658527 65.21563608) (62.82228510 21.80983169 64.11718683) (62.06832872 23.07746886 62.88355146) (61.03062606 24.00938207 61.62021483) (59.74814091 24.61172251 60.37133221))
		spline 3 9 ((62.28186604 16.05574354 65.38772225) (62.23937504 16.06748301 65.39947767) (62.19912064 16.07837023 65.41448881) (62.16260078 16.08814170 65.42985495) (62.13132384 16.09647991 65.44351836) (62.10641205 16.10314213 65.45405542) (62.08941966 16.10774973 65.46019629))
		spline 9 11 ((62.11693515 16.20165908 65.46588470) (62.60335596 17.96352358 65.44564093) (62.98265124 19.68935032 64.94301816) (62.86134644 21.15395321 64.02425061) (62.20913846 22.40800222 62.89634142) (61.30489913 23.38565746 61.66858151) (60.12215616 24.03761922 60.44576097) (58.72323882 24.35548868 59.34529242) (62.45358979 17.71350371 65.62057640) (62.87157276 19.48838904 65.18348153) (62.83871076 21.01405797 64.34087199) (62.25696255 22.29643425 63.22633241) (61.38559798 23.33239956 61.98025173) (60.24919415 24.03585205 60.75390785) (58.87257954 24.41916166 59.64064647) (62.38535353 17.43460723 65.71841995) (62.80638490 19.24810599 65.35336848) (62.86865583 20.84524445 64.57340447) (62.36599059 22.16016811 63.46923057) (61.54205599 23.23342544 62.23963521) (60.42394094 24.01163561 60.99365876) (59.08410174 24.45790373 59.85632982) (62.32080253 17.16442021 65.75921168) (62.74734005 18.96410292 65.46942827) (62.89398466 20.62544997 64.77649164) (62.48101267 21.97470258 63.68015529) (61.70107486 23.11287425 62.46101569) (60.61548792 23.93864969 61.21986985) (59.31103835 24.44539562 60.04943500) (62.22865093 16.87535143 65.77453061) (62.68307977 18.68171776 65.56201816) (62.91272353 20.37764752 64.94656909) (62.59702905 21.76802120 63.87758471) (61.85100052 22.97007534 62.67611151) (60.80741607 23.84491404 61.43793054) (59.54470498 24.40037039 60.24157128) (62.14919456 16.59957301 65.77329598) (62.61827547 18.41164743 65.63458340) (62.91805315 20.12492429 65.07554563) (62.70080924 21.56867254 64.04926663) (61.96760491 22.81954947 62.85288896) (60.99789744 23.73298145 61.64131952) (59.75815936 24.33600198 60.41908081) (62.04626848 16.31033028 65.75731372) (62.54132178 18.12281143 65.70734263) (62.91552646 19.86050392 65.19793056) (62.77119880 21.38217208 64.21549588) (62.09382657 22.64389003 63.06115795) (61.16665186 23.61489382 61.82684466) (59.96312056 24.25989452 60.59384150) (58.53686770 24.56354581 59.48628469) (62.44624454 17.72164574 65.76210386) (62.87235991 19.53056072 65.31913264) (62.83838269 21.10215481 64.45093333) (62.25246049 22.39325825 63.32802785) (61.37619397 23.43705449 62.07323337) (60.22832574 24.14919158 60.83380828) (58.84131254 24.53559313 59.71146820) (62.35039327 17.25797818 65.78148440) (62.77076730 19.07025823 65.46618246) (62.89402331 20.73125510 64.73155594) (62.44449011 22.07035815 63.63418932) (61.64615465 23.18916798 62.40026020) (60.54402328 23.99654361 61.15604631) (59.22683791 24.48614196 59.99609001) (62.20351780 16.78338167 65.78595269) (62.66780308 18.61213796 65.59613744) (62.91786695 20.30769372 64.99561565) (62.62844123 21.71762022 63.93368327) (61.88877273 22.93463167 62.73182877) (60.85594983 23.82619607 61.49705546) (59.59622310 24.39484903 60.28762388) (62.04690571 16.30976274 65.76298659) (62.54237882 18.12380538 65.71289731) (62.91675259 19.86228681 65.20326054) (62.77231016 21.38589655 64.21973396) (62.09456789 22.64833413 63.06471426) (61.16680092 23.61988540 61.82963115) (59.96298967 24.26503015 60.59635554) (58.53608395 24.56883452 59.48826522) (62.42907269 17.61686258 65.76966558) (62.85260346 19.43416028 65.34997462) (62.85672446 21.01607016 64.51791394) (62.30144155 22.31823197 63.40190267) (61.44132400 23.37663654 62.15253101) (60.30436019 24.11734236 60.91172530) (58.94229031 24.52595261 59.78289434) (62.32430863 17.16632716 65.78548211) (62.75227526 18.97234295 65.49429735) (62.89858182 20.64245038 64.79637170) (62.48419421 21.99448225 63.69738526) (61.70096572 23.13606055 62.47371646) (60.61232559 23.96301684 61.22949925) (59.30559990 24.46996454 60.05797773) (62.17542846 16.68082667 65.77978883) (62.63905897 18.50204854 65.62344680) (62.91999638 20.21091597 65.04145365) (62.67093633 21.63726123 64.00450595) (61.93320910 22.87833985 62.79709730) (60.93259648 23.77690052 61.57866336) (59.67976896 24.36567685 60.35826293))
		spline 10 11 ((58.39812933 24.80617026 59.36716875) (58.38841745 24.76163868 59.36919562) (58.38116842 24.71792838 59.36812599) (58.37547222 24.67758640 59.36580700) (58.37084730 24.64283826 59.36343256) (58.36698945 24.61529755 59.36180812) (58.36383087 24.59692325 59.36150762))
		spline 7 11 ((58.43722900 24.45023587 59.22701256) (58.41948547 24.47881852 59.25782960) (58.40407893 24.50936812 59.28600127) (58.39073456 24.53864938 59.31109780) (58.37948821 24.56417784 59.33245847) (58.37040540 24.58420128 59.34956335) (58.36383105 24.59692168 59.36150700))
		spline 12 13 ((62.08146182 16.08059115 65.94780371) (62.09825378 16.07529948 65.95394458) (62.12282164 16.06746349 65.96448164) (62.15365260 16.05760324 65.97814505) (62.18967090 16.04612005 65.99351119) (62.22943534 16.03356066 66.00852233) (62.27154264 16.02051169 66.02027775))
		spline 12 8 ((62.08146069 16.08059155 65.94780251) (62.07584447 16.08329998 65.93022968) (62.06613557 16.08770137 65.90449300) (62.05352862 16.09334919 65.87218776) (62.03937342 16.09977878 65.83445726) (62.02562298 16.10632510 65.79283570) (62.01504104 16.11208707 65.74883215))