/*---------------------------------------------------------------------------*\
| =========                |                                                 |
| \      /  F ield         | OpenFOAM: The Open Source CFD Toolbox           |
|  \    /   O peration     | Script: /home/mauricio/Documents/Unesp/CFD/classyGen/genCylinder.py|
|   \  /    A nd           | Time: 2026-03-29 20:37:03.748392                |
|    \/     M anipulation  |                                                 |
\*---------------------------------------------------------------------------*/
FoamFile
{
    version     2.0;
    format      ascii;
    class       dictionary;
    object      blockMeshDict;
}
// * * * * * * * * * * * * * * * * * * * * * * * * * * * * * * * * * * * * * //

vertices
(
	(62.75495264 3.52741263 63.16443800) // 0
	(63.05192477 3.64660808 63.16443800) // 1
	(62.97720429 3.62931195 62.92050832) // 2
	(62.74920267 3.54173852 62.84481055) // 3
	(61.87856081 5.51805761 62.75667431) // 4
	(62.16001488 5.67003054 62.74730238) // 5
	(62.11286150 5.58323600 62.51144805) // 6
	(61.90411707 5.45148963 62.44471985) // 7
	(62.45798052 3.40821718 63.16443800) // 8
	(62.52392460 3.44737946 62.92050832) // 9
	(61.59710674 5.36608468 62.76604624) // 10
	(61.68326760 5.35127402 62.52575278) // 11
	(62.53270100 3.42551331 63.40836768) // 12
	(62.76070262 3.51308674 63.48406545) // 13
	(61.64426011 5.45287922 63.00190056) // 14
	(61.85300454 5.58462559 63.06862876) // 15
	(62.98598069 3.60744580 63.40836768) // 16
	(62.07385402 5.68484120 62.98759583) // 17
	(63.12616780 3.67640695 63.16443800) // 18
	(63.01235909 3.64542994 62.88192458) // 19
	(62.23037840 5.70802378 62.74495939) // 20
	(62.14992217 5.59354564 62.47265922) // 21
	(62.74776518 3.54531999 62.76490369) // 22
	(61.91050614 5.43484764 62.36673124) // 23
	(62.48738158 3.43472016 62.88192458) // 24
	(61.65237696 5.32489291 62.48922662) // 25
	(62.38373749 3.37841831 63.16443800) // 26
	(61.52674322 5.32809145 62.76838922) // 27
	(62.49754619 3.40939532 63.44695142) // 28
	(61.60719944 5.44256958 63.04068939) // 29
	(62.76214011 3.50950526 63.56397231) // 30
	(61.84661548 5.60126758 63.14661738) // 31
	(63.02252370 3.62010510 63.44695142) // 32
	(62.10474465 5.71122231 63.02412200) // 33
	(60.77899011 7.43269350 62.67115097) // 34
	(61.06662682 7.57216212 62.65653496) // 35
	(60.97248177 7.56752948 62.41883927) // 36
	(60.74489059 7.46990398 62.35515634) // 37
	(60.49135341 7.29322487 62.68576697) // 38
	(60.53345108 7.35465328 62.44114822) // 39
	(60.58549845 7.29785752 62.92346266) // 40
	(60.81308963 7.39548301 62.98714559) // 41
	(61.02452914 7.51073371 62.90115371) // 42
	(61.13853599 7.60702928 62.65288096) // 43
	(61.00308744 7.58885725 62.37892970) // 44
	(60.73636571 7.47920661 62.27615768) // 45
	(60.49461278 7.34230922 62.40476738) // 46
	(60.41944423 7.25835771 62.68942097) // 47
	(60.55489278 7.27652975 62.96337223) // 48
	(60.82161451 7.38618039 63.06614425) // 49
	(61.06336744 7.52307778 62.93753455) // 50
	(60.27727795 9.43539298 63.41963532) // 51
	(60.58916815 9.49119419 63.37479418) // 52
	(60.46596962 9.57980306 63.16899188) // 53
	(60.21263539 9.56881608 63.13605180) // 54
	(59.96538775 9.37959177 63.46447646) // 55
	(59.98991992 9.49463158 63.23743460) // 56
	(60.08858627 9.29098290 63.67027877) // 57
	(60.34192050 9.30196988 63.70321885) // 58
	(60.56463598 9.37615438 63.60183605) // 59
	(60.66714070 9.50514449 63.36358390) // 60
	(60.49581606 9.60264523 63.12934619) // 61
	(60.19647475 9.60217186 63.06515592) // 62
	(59.94446687 9.50400169 63.20861487) // 63
	(59.88741520 9.36564147 63.47568675) // 64
	(60.05873984 9.26814074 63.70992446) // 65
	(60.35808114 9.26861410 63.77411473) // 66
	(60.61008903 9.36678427 63.63065577) // 67
	(60.33821331 11.42632736 64.38099332) // 68
	(60.64314173 11.38854559 64.29159982) // 69
	(60.52133269 11.50391130 64.09863011) // 70
	(60.27323101 11.56576940 64.10039892) // 71
	(60.03328489 11.46410912 64.47038682) // 72
	(60.05590901 11.56157903 64.23507477) // 73
	(60.15509393 11.34874341 64.66335653) // 74
	(60.40319561 11.28688532 64.66158772) // 75
	(60.62051761 11.29107569 64.52691187) // 76
	(60.71937383 11.37910015 64.26925144) // 77
	(60.55029772 11.51618320 64.05396713) // 78
	(60.25698544 11.60062991 64.03025032) // 79
	(60.01125534 11.58297255 64.21199401) // 80
	(59.95705279 11.47355456 64.49273520) // 81
	(60.12612890 11.33647152 64.70801952) // 82
	(60.41944119 11.25202481 64.73173632) // 83
	(60.66517128 11.26968217 64.54999264) // 84
	(61.10286467 13.40207651 65.03913110) // 85
	(61.38399159 13.29866239 64.92655591) // 86
	(61.26506268 13.41874915 64.73467292) // 87
	(61.03427005 13.52733722 64.75276677) // 88
	(60.82173774 13.50549063 65.15170629) // 89
	(60.83596812 13.57659400 64.90650066) // 90
	(60.94066665 13.38540388 65.34358928) // 91
	(61.17145928 13.27681580 65.32549544) // 92
	(61.36976122 13.22755903 65.17176154) // 93
	(61.45427332 13.27280886 64.89841211) // 94
	(61.29071846 13.42138635 64.68651504) // 95
	(61.01712139 13.55865240 64.68117568) // 96
	(60.79375158 13.60419842 64.88552175) // 97
	(60.75145601 13.53134416 65.17985009) // 98
	(60.91501087 13.38276667 65.39174716) // 99
	(61.18860794 13.24550062 65.39708652) // 100
	(61.41197776 13.19995461 65.19274045) // 101
	(62.07344561 15.31731161 65.59486456) // 102
	(62.35639625 15.21855358 65.48267815) // 103
	(62.22597220 15.31499009 65.28500781) // 104
	(61.99035456 15.41302769 65.30103755) // 105
	(61.79049498 15.41606964 65.70705097) // 106
	(61.79409404 15.46572817 65.45624213) // 107
	(61.92091903 15.31963314 65.90472131) // 108
	(62.15653667 15.22159554 65.88869157) // 109
	(62.35279719 15.16889506 65.73348699) // 110
	(62.42713391 15.19386408 65.45463155) // 111
	(62.25009819 15.31462288 65.23599601) // 112
	(61.96958180 15.43695670 65.22758080) // 113
	(61.74990741 15.48920406 65.43431544) // 114
	(61.71975732 15.44075915 65.73509757) // 115
	(61.89679303 15.32000035 65.95373311) // 116
	(62.17730943 15.19766652 65.96214832) // 117
	(62.39698381 15.14541917 65.75541368) // 118
	(62.72858466 17.43225930 65.72101061) // 119
	(63.01783325 17.35000868 65.61160271) // 120
	(62.86397726 17.37364157 65.40873868) // 121
	(62.61674454 17.43770157 65.42124042) // 122
	(62.43933607 17.51450992 65.83041851) // 123
	(62.42248629 17.49918377 65.57573206) // 124
	(62.59319206 17.49087703 66.03328254) // 125
	(62.84042478 17.42681703 66.02078080) // 126
	(63.03468303 17.36533483 65.86628916) // 127
	(63.09014540 17.32944603 65.58425073) // 128
	(62.88539308 17.36436967 65.35934485) // 129
	(62.58878451 17.43906213 65.34629787) // 130
	(62.37406898 17.50976959 65.55275252) // 131
	(62.36702392 17.53507257 65.85777048) // 132
	(62.57177625 17.50014893 66.08267637) // 133
	(62.86838482 17.42545647 66.09572335) // 134
	(63.08310035 17.35474901 65.88926870) // 135
	(63.21209318 19.53900585 65.23686508) // 136
	(63.50028865 19.45618930 65.12512972) // 137
	(63.33087175 19.41036373 64.93916755) // 138
	(63.07953638 19.45325927 64.95851958) // 139
	(62.92389771 19.62182240 65.34860044) // 140
	(62.89098820 19.53676974 65.10971342) // 141
	(63.09331462 19.66764796 65.53456260) // 142
	(63.34464999 19.62475243 65.51521058) // 143
	(63.53319817 19.54124195 65.36401673) // 144
	(63.57233752 19.43548516 65.09719588) // 145
	(63.34965962 19.39001568 64.89207905) // 146
	(63.04639718 19.43182262 64.88893320) // 147
	(62.84019720 19.53641605 65.08960113) // 148
	(62.85184885 19.64252654 65.37653428) // 149
	(63.07452674 19.68799602 65.58165110) // 150
	(63.37778919 19.64618907 65.58479695) // 151
	(63.58398917 19.54159565 65.38412903) // 152
	(63.08826412 21.41288954 64.10234686) // 153
	(63.37100096 21.38436672 63.95521995) // 154
	(63.20705865 21.22920920 63.83508230) // 155
	(62.96118686 21.20073119 63.89927001) // 156
	(62.80552727 21.44141236 64.24947376) // 157
	(62.77550680 21.27274465 64.05964761) // 158
	(62.96946958 21.59656989 64.36961141) // 159
	(63.21534137 21.62504790 64.30542370) // 160
	(63.40102143 21.55303444 64.14504611) // 161
	(63.44168517 21.37723602 63.91843823) // 162
	(63.22584906 21.20015543 63.79280755) // 163
	(62.92941755 21.14769161 63.84850080) // 164
	(62.72603621 21.25057713 64.05289362) // 165
	(62.73484306 21.44854307 64.28625548) // 166
	(62.95067918 21.62562365 64.41188616) // 167
	(63.24711068 21.67808748 64.35619291) // 168
	(63.45049203 21.57520196 64.15180009) // 169
	(62.25241821 22.90539904 62.69187166) // 170
	(62.51919971 22.90931685 62.51520168) // 171
	(62.37943898 22.70997745 62.43700487) // 172
	(62.15207536 22.64541521 62.53458302) // 173
	(61.98563671 22.90148124 62.86854165) // 174
	(61.97224038 22.70399756 62.70666290) // 175
	(62.12539744 23.10082064 62.94673846) // 176
	(62.35276107 23.16538288 62.84916031) // 177
	(62.53259605 23.10680053 62.67708043) // 178
	(62.58589508 22.91029630 62.47103418) // 179
	(62.39953058 22.67906651 62.39669115) // 180
	(62.12698964 22.58041925 62.49526086) // 181
	(61.92792306 22.67214075 62.70900251) // 182
	(61.91894134 22.90050179 62.91270915) // 183
	(62.10530585 23.13173158 62.98705218) // 184
	(62.37784678 23.23037883 62.88848247) // 185
	(62.57691336 23.13865734 62.67474082) // 186
	(61.03195991 23.98338524 61.18567041) // 187
	(61.27004500 24.01170068 60.97374181) // 188
	(61.16634820 23.78030629 60.94076290) // 189
	(60.96996732 23.68897014 61.07669029) // 190
	(60.79387483 23.95506981 61.39759900) // 191
	(60.80295001 23.73708738 61.26423747) // 192
	(60.89757163 24.18646419 61.43057791) // 193
	(61.09395250 24.27780035 61.29465052) // 194
	(61.26096982 24.22968311 61.10710334) // 195
	(61.32956627 24.01877954 60.92075966) // 196
	(61.18760516 23.74818415 60.90202450) // 197
	(60.95446918 23.61536637 61.04944526) // 198
	(60.76672622 23.69812905 61.27666486) // 199
	(60.73435356 23.94799095 61.45058115) // 200
	(60.87631467 24.21858634 61.46931631) // 201
	(61.10945065 24.35140412 61.32189555) // 202
	(61.29719361 24.26864144 61.09467595) // 203
	(59.45186558 24.59094717 59.75606584) // 204
	(59.65259125 24.63289967 59.51040512) // 205
	(59.59235587 24.38449364 59.51748593) // 206
	(59.43522801 24.27847320 59.68910905) // 207
	(59.25113990 24.54899467 60.00172657) // 208
	(59.28598074 24.32045996 59.89244710) // 209
	(59.31137529 24.79740070 59.99464576) // 210
	(59.46850315 24.90342114 59.82302263) // 211
	(59.61775042 24.86143438 59.61968459) // 212
	(59.70277267 24.64338780 59.44898994) // 213
	(59.61457801 24.35183772 59.47974839) // 214
	(59.43106861 24.20035471 59.67236986) // 215
	(59.25974180 24.27767547 59.91401930) // 216
	(59.20095849 24.53850654 60.06314175) // 217
	(59.28915315 24.83005662 60.03238330) // 218
	(59.47266254 24.98153963 59.83976183) // 219
	(59.64398936 24.90421887 59.59811239) // 220
	(57.63312058 24.80951210 58.50036912) // 221
	(57.81113814 24.85505400 58.23838499) // 222
	(57.79150168 24.60256664 58.27371970) // 223
	(57.66263393 24.49280415 58.46536858) // 224
	(57.45510303 24.76397019 58.76235326) // 225
	(57.51978681 24.53305433 58.67359590) // 226
	(57.47473948 25.01645755 58.72701855) // 227
	(57.60360724 25.12622004 58.53536967) // 228
	(57.74645436 25.08596986 58.32714235) // 229
	(57.85564253 24.86643947 58.17288896) // 230
	(57.81655372 24.56983291 58.23786927) // 231
	(57.67001227 24.41362716 58.45661844) // 232
	(57.50186017 24.48932544 58.70099616) // 233
	(57.41059864 24.75258472 58.82784929) // 234
	(57.44968745 25.04919128 58.76286898) // 235
	(57.59622890 25.20539703 58.54411981) // 236
	(57.76438100 25.12969875 58.29974209) // 237
	(55.71371927 24.66638624 57.39360415) // 238
	(55.86299751 24.70979539 57.11390493) // 239
	(55.85605164 24.45798806 57.15782322) // 240
	(55.75094286 24.34990749 57.36435343) // 241
	(55.56444103 24.62297709 57.67330337) // 242
	(55.62820266 24.39173104 57.58473862) // 243
	(55.57138691 24.87478442 57.62938509) // 244
	(55.67649568 24.98286499 57.42285487) // 245
	(55.79923588 24.94104144 57.20246969) // 246
	(55.90031707 24.72064768 57.04398013) // 247
	(55.87856516 24.42502454 57.12052841) // 248
	(55.76024876 24.27078780 57.35704075) // 249
	(55.61467602 24.34828727 57.61497144) // 250
	(55.52712147 24.61212480 57.74322817) // 251
	(55.54887339 24.90774794 57.66667990) // 252
	(55.66718979 25.06198468 57.43016755) // 253
	(55.81276253 24.98448521 57.17223686) // 254
	(53.81306382 24.65387137 56.24375897) // 255
	(53.97396344 24.69819899 55.97072715) // 256
	(53.94607008 24.44597338 56.00216279) // 257
	(53.82644578 24.33712957 56.20022099) // 258
	(53.65216419 24.60954375 56.51679079) // 259
	(53.70048295 24.37831447 56.41890150) // 260
	(53.68005755 24.86176936 56.48535516) // 261
	(53.79968185 24.97061317 56.28729696) // 262
	(53.92564468 24.92942826 56.06861645) // 263
	(54.01418834 24.70928089 55.90246920) // 264
	(53.96710843 24.41308898 55.96394815) // 265
	(53.82979128 24.25794412 56.18933649) // 266
	(53.68267540 24.33472808 56.44660478) // 267
	(53.61193929 24.59846185 56.58504875) // 268
	(53.65901920 24.89465376 56.52356979) // 269
	(53.79633635 25.04979862 56.29818146) // 270
	(53.94345223 24.97301466 56.04091317) // 271
	(51.90295265 24.90072888 55.14929163) // 272
	(52.07142076 24.94327756 54.88057597) // 273
	(52.00670567 24.69612417 54.89111886) // 274
	(51.87043483 24.59008128 55.07971674) // 275
	(51.73448453 24.85818019 55.41800728) // 276
	(51.74956647 24.63118051 55.30126964) // 277
	(51.79919963 25.10533358 55.40746440) // 278
	(51.93547047 25.21137647 55.21886652) // 279
	(52.05633883 25.17027724 54.99731362) // 280
	(52.11353779 24.95391473 54.81339706) // 281
	(52.02311687 24.66376068 54.85028221) // 282
	(51.86230538 24.51241939 55.06232302) // 283
	(51.72530450 24.58854452 55.32530886) // 284
	(51.69236750 24.84754302 55.48518620) // 285
	(51.78278843 25.13769707 55.44830105) // 286
	(51.94359992 25.28903837 55.23626024) // 287
	(52.08060080 25.21291323 54.97327440) // 288
	(50.02213176 25.53278093 54.16688113) // 289
	(50.18302624 25.57598627 53.89366645) // 290
	(50.06646813 25.34894186 53.87788556) // 291
	(49.91933238 25.24868644 54.06141735) // 292
	(49.86123727 25.48957559 54.44009581) // 293
	(49.82088885 25.28299593 54.29490338) // 294
	(49.97779538 25.71662000 54.45587670) // 295
	(50.12493113 25.81687542 54.27234491) // 296
	(50.22337467 25.78256594 54.03885888) // 297
	(50.22324987 25.58678761 53.82536278) // 298
	(50.07348107 25.31986299 53.83217350) // 299
	(49.89363254 25.17766282 54.03505141) // 300
	(49.78905711 25.24348601 54.31515339) // 301
	(49.82101365 25.47877425 54.50839948) // 302
	(49.97078245 25.74569887 54.50158876) // 303
	(50.15063098 25.88789905 54.29871085) // 304
	(50.25520640 25.82207585 54.01860888) // 305
	(48.47404268 26.92099201 53.42250116) // 306
	(48.65059052 26.94688404 53.15686896) // 307
	(48.46190908 26.78176837 53.10666812) // 308
	(48.28159587 26.71267159 53.27428905) // 309
	(48.29749484 26.89509998 53.68813335) // 310
	(48.19243749 26.74224839 53.51211250) // 311
	(48.48617628 27.06021565 53.73833419) // 312
	(48.66648949 27.12931243 53.57071326) // 313
	(48.75564786 27.09973563 53.33288981) // 314
	(48.69472748 26.95335705 53.09046091) // 315
	(48.45998984 26.75974657 53.05671102) // 316
	(48.23348417 26.66059149 53.23723602) // 317
	(48.14789441 26.71397550 53.52628683) // 318
	(48.25335788 26.88862697 53.75454140) // 319
	(48.48809552 27.08223745 53.78829130) // 320
	(48.71460119 27.18139253 53.60776629) // 321
	(48.80019095 27.12800852 53.31871548) // 322
	(47.46073238 28.74894791 52.68247747) // 323
	(47.66059059 28.73437675 52.43298924) // 324
	(47.44098161 28.62518542 52.36064878) // 325
	(47.23499421 28.60134983 52.51026513) // 326
	(47.26087416 28.76351906 52.93196570) // 327
	(47.13593052 28.64742591 52.74145202) // 328
	(47.48048315 28.87271040 53.00430617) // 329
	(47.68647054 28.89654599 52.85468981) // 330
	(47.78553423 28.85046990 52.62350292) // 331
	(47.71055514 28.73073397 52.37061718) // 332
	(47.43785752 28.60560920 52.30974331) // 333
	(47.17855967 28.56445031 52.46721205) // 334
	(47.08455477 28.63136760 52.75078036) // 335
	(47.21090961 28.76716184 52.99433776) // 336
	(47.48360724 28.89228661 53.05521163) // 337
	(47.74290508 28.93344551 52.89774289) // 338
	(47.83690998 28.86652821 52.61417459) // 339
	(46.95738294 30.85025605 52.19206370) // 340
	(47.15792367 30.82078213 51.94444564) // 341
	(46.92214408 30.77459973 51.85692895) // 342
	(46.71066782 30.78059552 52.00054593) // 343
	(46.75684221 30.87972997 52.43968177) // 344
	(46.61605125 30.81958688 52.23487769) // 345
	(46.99262179 30.92591236 52.52719845) // 346
	(47.20409806 30.91991657 52.38358148) // 347
	(47.29871463 30.88092521 52.14924972) // 348
	(47.20805885 30.81341365 51.88254113) // 349
	(46.91657015 30.76263275 51.80391879) // 350
	(46.64898904 30.76318039 51.95266648) // 351
	(46.56206088 30.81473577 52.24164982) // 352
	(46.70670703 30.88709845 52.50158628) // 353
	(46.99819572 30.93787935 52.58020862) // 354
	(47.26577684 30.93733170 52.43146093) // 355
	(47.35270499 30.88577632 52.14247759) // 356
	(46.66909411 33.02011990 51.80533737) // 357
	(46.86849103 32.99381528 51.55644195) // 358
	(46.63123528 32.95962903 51.46741945) // 359
	(46.42008977 32.96716175 51.61145009) // 360
	(46.46969718 33.04642452 52.05423279) // 361
	(46.32688827 32.99977876 51.84731787) // 362
	(46.70695293 33.08061076 52.14325529) // 363
	(46.91809844 33.07307804 51.99922465) // 364
	(47.01129994 33.04046103 51.76335687) // 365
	(46.91834027 32.98723912 51.49421809) // 366
	(46.62524694 32.95006085 51.41396906) // 367
	(46.35783869 32.95392222 51.56297828) // 368
	(46.27275964 32.99656129 51.85395816) // 369
	(46.41984795 33.05300067 52.11645665) // 370
	(46.71294127 33.09017894 52.19670568) // 371
	(46.98034953 33.08631757 52.04769647) // 372
	(47.06542857 33.04367850 51.75671658) // 373
	(46.46197061 35.15858446 51.25676181) // 374
	(46.66098358 35.12174493 51.00889756) // 375
	(46.42763759 35.05370844 50.92949553) // 376
	(46.21797019 35.05800220 51.07580048) // 377
	(46.26295763 35.19542398 51.50462606) // 378
	(46.12387663 35.10993799 51.30782003) // 379
	(46.49630362 35.26346047 51.58402810) // 380
	(46.70597102 35.25916671 51.43772315) // 381
	(46.80006458 35.20723092 51.20570360) // 382
	(46.71073682 35.11253505 50.94693150) // 383
	(46.42220695 35.03711961 50.87772996) // 384
	(46.15697008 35.03285663 51.03056014) // 385
	(46.07039839 35.10224331 51.31589619) // 386
	(46.21320439 35.20463386 51.56659213) // 387
	(46.50173426 35.28004930 51.63579366) // 388
	(46.76697113 35.28431228 51.48296348) // 389
	(46.85354282 35.21492560 51.19762743) // 390
	(45.93411253 37.18041824 50.50645313) // 391
	(46.13663321 37.13207847 50.26345387) // 392
	(45.91247506 37.02851104 50.19703920) // 393
	(45.70323971 37.02971002 50.34401922) // 394
	(45.73159184 37.22875801 50.74945239) // 395
	(45.60336015 37.10229384 50.56793808) // 396
	(45.95574999 37.33232544 50.81586706) // 397
	(46.16498534 37.33112646 50.66888704) // 398
	(46.26486490 37.25854264 50.44496818) // 399
	(46.18726338 37.11999353 50.20270406) // 400
	(45.90905254 37.00448301 50.14809745) // 401
	(45.64552150 36.99203297 50.30341074) // 402
	(45.55104317 37.08993646 50.57766351) // 403
	(45.68096167 37.24084295 50.81020220) // 404
	(45.95917251 37.35635346 50.86480881) // 405
	(46.22270355 37.36880351 50.70949552) // 406
	(46.31718188 37.27090002 50.43524275) // 407
	(45.17602725 38.99160614 49.46473054) // 408
	(45.38668168 38.92633041 49.23286035) // 409
	(45.17803286 38.78564644 49.18749863) // 410
	(44.96800082 38.78700749 49.33333651) // 411
	(44.96537281 39.05688188 49.69660074) // 412
	(44.85650310 38.88527924 49.54141081) // 413
	(45.17402164 39.19756585 49.74196246) // 414
	(45.38405368 39.19620480 49.59612458) // 415
	(45.49555140 39.09793304 49.38805028) // 416
	(45.43934529 38.91001147 49.17489280) // 417
	(45.17835010 38.75306863 49.14364729) // 418
	(44.91599421 38.73585782 49.30048800) // 419
	(44.80596215 38.86846092 49.55353976) // 420
	(44.91270921 39.07320081 49.75456829) // 421
	(45.17370440 39.23014366 49.78581380) // 422
	(45.43606028 39.24735447 49.62897309) // 423
	(45.54609234 39.11475137 49.37592133) // 424
	(44.43360846 40.27644388 47.85589109) // 425
	(44.68339179 40.14477561 47.70531966) // 426
	(44.49741480 39.96938590 47.71123597) // 427
	(44.26743225 40.00576603 47.81691713) // 428
	(44.18382512 40.40811215 48.00646251) // 429
	(44.11616113 40.17035611 47.94105878) // 430
	(44.36980211 40.58350186 48.00054620) // 431
	(44.59978467 40.54712173 47.89486504) // 432
	(44.75105578 40.38253165 47.77072339) // 433
	(44.74583763 40.11185855 47.66767681) // 434
	(44.50750741 39.92081680 47.68835505) // 435
	(44.22588820 39.93809657 47.80717364) // 436
	(44.06594869 40.15357561 47.95453024) // 437
	(44.12137929 40.44102921 48.04410537) // 438
	(44.35970950 40.63207096 48.02342712) // 439
	(44.64132872 40.61479119 47.90460853) // 440
	(44.80126823 40.39931215 47.75725193) // 441
	(43.95450059 40.67439516 45.75431375) // 442
	(44.23245753 40.51659918 45.76981760) // 443
	(44.04700929 40.34167262 45.74997719) // 444
	(43.79776023 40.39621607 45.73312759) // 445
	(43.67654365 40.83219114 45.73880990) // 446
	(43.62275319 40.58252253 45.72631308) // 447
	(43.86199190 41.00711770 45.75865030) // 448
	(44.11124096 40.95257425 45.77549990) // 449
	(44.28624800 40.76626779 45.78231442) // 450
	(44.30194677 40.47715019 45.77369356) // 451
	(44.06164192 40.28904401 45.74929125) // 452
	(43.75857513 40.32667130 45.72783105) // 453
	(43.57027883 40.56799052 45.72188405) // 454
	(43.60705442 40.87164013 45.73493393) // 455
	(43.84735927 41.05974631 45.75933624) // 456
	(44.15042606 41.02211902 45.78079644) // 457
	(44.33872236 40.78079980 45.78674344) // 458
	(44.38756015 40.06314024 43.70685898) // 459
	(44.63850549 39.94458530 43.86614226) // 460
	(44.44468128 39.78073997 43.89730115) // 461
	(44.21146212 39.81165870 43.79711706) // 462
	(44.13661481 40.18169517 43.54757569) // 463
	(44.06165400 39.96169481 43.65418110) // 464
	(44.33043903 40.34554051 43.51641681) // 465
	(44.56365819 40.31462177 43.61660090) // 466
	(44.71346631 40.16458566 43.75953685) // 467
	(44.70124183 39.91494657 43.90596308) // 468
	(44.45371645 39.73607111 43.92742446) // 469
	(44.16743761 39.74878832 43.81968157) // 470
	(44.01010357 39.94564861 43.64584874) // 471
	(44.07387848 40.21133390 43.50775487) // 472
	(44.32140386 40.39020936 43.48629349) // 473
	(44.60768269 40.37749215 43.59403638) // 474
	(44.76501673 40.18063186 43.76786921) // 475
	(45.46413228 39.11095574 42.03639385) // 476
	(45.66820086 39.03408560 42.27058820) // 477
	(45.52397577 38.82791094 42.22503465) // 478
	(45.33847819 38.81694487 42.04938047) // 479
	(45.26006370 39.18782589 41.80219950) // 480
	(45.21249824 38.94524072 41.86757502) // 481
	(45.40428879 39.39400055 41.84775305) // 482
	(45.58978637 39.40496662 42.02340722) // 483
	(45.71576632 39.27667077 42.20521267) // 484
	(45.71921801 39.01486806 42.32913679) // 485
	(45.53344155 38.78314014 42.25487303) // 486
	(45.30706466 38.74344215 42.05262713) // 487
	(45.17269586 38.91902864 41.84087199) // 488
	(45.20904655 39.20704342 41.74365091) // 489
	(45.39482301 39.43877135 41.81791467) // 490
	(45.62119990 39.47846934 42.02016057) // 491
	(45.75556871 39.30288285 42.23191570) // 492
	(47.15376308 38.82846515 40.65878842) // 493
	(47.34321180 38.75849528 40.90700888) // 494
	(47.29988403 38.54032655 40.78087758) // 495
	(47.15578047 38.52087947 40.57054459) // 496
	(46.96431436 38.89843503 40.41056795) // 497
	(47.01072135 38.64712419 40.40200938) // 498
	(47.00764213 39.11660376 40.53669925) // 499
	(47.15174569 39.13605084 40.74703225) // 500
	(47.29680481 39.00980612 40.91556746) // 501
	(47.39057398 38.74100281 40.96906400) // 502
	(47.32299681 38.49475003 40.80018912) // 503
	(47.15628482 38.44398304 40.54848363) // 504
	(46.98809563 38.61844046 40.36139319) // 505
	(46.91695218 38.91592750 40.34851284) // 506
	(46.98452935 39.16218028 40.51738772) // 507
	(47.15124134 39.21294727 40.76909321) // 508
	(47.31943053 39.03848985 40.95618365) // 509
);

blocks
(
	hex ( 0 1 2 3 4 5 6 7 )  ( 10 10 10 ) simpleGrading ( 1.0 1 1 ) // 0 
	hex ( 8 0 3 9 10 4 7 11 )  ( 10 10 10 ) simpleGrading ( 1.0 1 1 ) // 1 
	hex ( 12 13 0 8 14 15 4 10 )  ( 10 10 10 ) simpleGrading ( 1.0 1.0 1 ) // 2 
	hex ( 13 16 1 0 15 17 5 4 )  ( 10 10 10 ) simpleGrading ( 1.0 1.0 1 ) // 3 
	hex ( 1 18 19 2 5 20 21 6 )  ( 10 10 10 ) simpleGrading ( 1 1 1 ) // 4 
	hex ( 2 19 22 3 6 21 23 7 )  ( 10 10 10 ) simpleGrading ( 1 1 1 ) // 5 
	hex ( 3 22 24 9 7 23 25 11 )  ( 10 10 10 ) simpleGrading ( 1 1 1 ) // 6 
	hex ( 9 24 26 8 11 25 27 10 )  ( 10 10 10 ) simpleGrading ( 1 1.0 1 ) // 7 
	hex ( 8 26 28 12 10 27 29 14 )  ( 10 10 10 ) simpleGrading ( 1 1 1 ) // 8 
	hex ( 12 28 30 13 14 29 31 15 )  ( 10 10 10 ) simpleGrading ( 1 1.0 1 ) // 9 
	hex ( 13 30 32 16 15 31 33 17 )  ( 10 10 10 ) simpleGrading ( 1 1.0 1 ) // 10 
	hex ( 16 32 18 1 17 33 20 5 )  ( 10 10 10 ) simpleGrading ( 1 1.0 1 ) // 11 
	hex ( 4 5 6 7 34 35 36 37 )  ( 10 10 10 ) simpleGrading ( 1.0 1 1 ) // 12 
	hex ( 10 4 7 11 38 34 37 39 )  ( 10 10 10 ) simpleGrading ( 1.0 1 1 ) // 13 
	hex ( 14 15 4 10 40 41 34 38 )  ( 10 10 10 ) simpleGrading ( 1.0 1.0 1 ) // 14 
	hex ( 15 17 5 4 41 42 35 34 )  ( 10 10 10 ) simpleGrading ( 1.0 1.0 1 ) // 15 
	hex ( 5 20 21 6 35 43 44 36 )  ( 10 10 10 ) simpleGrading ( 1 1 1 ) // 16 
	hex ( 6 21 23 7 36 44 45 37 )  ( 10 10 10 ) simpleGrading ( 1 1 1 ) // 17 
	hex ( 7 23 25 11 37 45 46 39 )  ( 10 10 10 ) simpleGrading ( 1 1 1 ) // 18 
	hex ( 11 25 27 10 39 46 47 38 )  ( 10 10 10 ) simpleGrading ( 1 1.0 1 ) // 19 
	hex ( 10 27 29 14 38 47 48 40 )  ( 10 10 10 ) simpleGrading ( 1 1 1 ) // 20 
	hex ( 14 29 31 15 40 48 49 41 )  ( 10 10 10 ) simpleGrading ( 1 1.0 1 ) // 21 
	hex ( 15 31 33 17 41 49 50 42 )  ( 10 10 10 ) simpleGrading ( 1 1.0 1 ) // 22 
	hex ( 17 33 20 5 42 50 43 35 )  ( 10 10 10 ) simpleGrading ( 1 1.0 1 ) // 23 
	hex ( 34 35 36 37 51 52 53 54 )  ( 10 10 10 ) simpleGrading ( 1.0 1 1 ) // 24 
	hex ( 38 34 37 39 55 51 54 56 )  ( 10 10 10 ) simpleGrading ( 1.0 1 1 ) // 25 
	hex ( 40 41 34 38 57 58 51 55 )  ( 10 10 10 ) simpleGrading ( 1.0 1.0 1 ) // 26 
	hex ( 41 42 35 34 58 59 52 51 )  ( 10 10 10 ) simpleGrading ( 1.0 1.0 1 ) // 27 
	hex ( 35 43 44 36 52 60 61 53 )  ( 10 10 10 ) simpleGrading ( 1 1 1 ) // 28 
	hex ( 36 44 45 37 53 61 62 54 )  ( 10 10 10 ) simpleGrading ( 1 1 1 ) // 29 
	hex ( 37 45 46 39 54 62 63 56 )  ( 10 10 10 ) simpleGrading ( 1 1 1 ) // 30 
	hex ( 39 46 47 38 56 63 64 55 )  ( 10 10 10 ) simpleGrading ( 1 1.0 1 ) // 31 
	hex ( 38 47 48 40 55 64 65 57 )  ( 10 10 10 ) simpleGrading ( 1 1 1 ) // 32 
	hex ( 40 48 49 41 57 65 66 58 )  ( 10 10 10 ) simpleGrading ( 1 1.0 1 ) // 33 
	hex ( 41 49 50 42 58 66 67 59 )  ( 10 10 10 ) simpleGrading ( 1 1.0 1 ) // 34 
	hex ( 42 50 43 35 59 67 60 52 )  ( 10 10 10 ) simpleGrading ( 1 1.0 1 ) // 35 
	hex ( 51 52 53 54 68 69 70 71 )  ( 10 10 10 ) simpleGrading ( 1.0 1 1 ) // 36 
	hex ( 55 51 54 56 72 68 71 73 )  ( 10 10 10 ) simpleGrading ( 1.0 1 1 ) // 37 
	hex ( 57 58 51 55 74 75 68 72 )  ( 10 10 10 ) simpleGrading ( 1.0 1.0 1 ) // 38 
	hex ( 58 59 52 51 75 76 69 68 )  ( 10 10 10 ) simpleGrading ( 1.0 1.0 1 ) // 39 
	hex ( 52 60 61 53 69 77 78 70 )  ( 10 10 10 ) simpleGrading ( 1 1 1 ) // 40 
	hex ( 53 61 62 54 70 78 79 71 )  ( 10 10 10 ) simpleGrading ( 1 1 1 ) // 41 
	hex ( 54 62 63 56 71 79 80 73 )  ( 10 10 10 ) simpleGrading ( 1 1 1 ) // 42 
	hex ( 56 63 64 55 73 80 81 72 )  ( 10 10 10 ) simpleGrading ( 1 1.0 1 ) // 43 
	hex ( 55 64 65 57 72 81 82 74 )  ( 10 10 10 ) simpleGrading ( 1 1 1 ) // 44 
	hex ( 57 65 66 58 74 82 83 75 )  ( 10 10 10 ) simpleGrading ( 1 1.0 1 ) // 45 
	hex ( 58 66 67 59 75 83 84 76 )  ( 10 10 10 ) simpleGrading ( 1 1.0 1 ) // 46 
	hex ( 59 67 60 52 76 84 77 69 )  ( 10 10 10 ) simpleGrading ( 1 1.0 1 ) // 47 
	hex ( 68 69 70 71 85 86 87 88 )  ( 10 10 10 ) simpleGrading ( 1.0 1 1 ) // 48 
	hex ( 72 68 71 73 89 85 88 90 )  ( 10 10 10 ) simpleGrading ( 1.0 1 1 ) // 49 
	hex ( 74 75 68 72 91 92 85 89 )  ( 10 10 10 ) simpleGrading ( 1.0 1.0 1 ) // 50 
	hex ( 75 76 69 68 92 93 86 85 )  ( 10 10 10 ) simpleGrading ( 1.0 1.0 1 ) // 51 
	hex ( 69 77 78 70 86 94 95 87 )  ( 10 10 10 ) simpleGrading ( 1 1 1 ) // 52 
	hex ( 70 78 79 71 87 95 96 88 )  ( 10 10 10 ) simpleGrading ( 1 1 1 ) // 53 
	hex ( 71 79 80 73 88 96 97 90 )  ( 10 10 10 ) simpleGrading ( 1 1 1 ) // 54 
	hex ( 73 80 81 72 90 97 98 89 )  ( 10 10 10 ) simpleGrading ( 1 1.0 1 ) // 55 
	hex ( 72 81 82 74 89 98 99 91 )  ( 10 10 10 ) simpleGrading ( 1 1 1 ) // 56 
	hex ( 74 82 83 75 91 99 100 92 )  ( 10 10 10 ) simpleGrading ( 1 1.0 1 ) // 57 
	hex ( 75 83 84 76 92 100 101 93 )  ( 10 10 10 ) simpleGrading ( 1 1.0 1 ) // 58 
	hex ( 76 84 77 69 93 101 94 86 )  ( 10 10 10 ) simpleGrading ( 1 1.0 1 ) // 59 
	hex ( 85 86 87 88 102 103 104 105 )  ( 10 10 10 ) simpleGrading ( 1.0 1 1 ) // 60 
	hex ( 89 85 88 90 106 102 105 107 )  ( 10 10 10 ) simpleGrading ( 1.0 1 1 ) // 61 
	hex ( 91 92 85 89 108 109 102 106 )  ( 10 10 10 ) simpleGrading ( 1.0 1.0 1 ) // 62 
	hex ( 92 93 86 85 109 110 103 102 )  ( 10 10 10 ) simpleGrading ( 1.0 1.0 1 ) // 63 
	hex ( 86 94 95 87 103 111 112 104 )  ( 10 10 10 ) simpleGrading ( 1 1 1 ) // 64 
	hex ( 87 95 96 88 104 112 113 105 )  ( 10 10 10 ) simpleGrading ( 1 1 1 ) // 65 
	hex ( 88 96 97 90 105 113 114 107 )  ( 10 10 10 ) simpleGrading ( 1 1 1 ) // 66 
	hex ( 90 97 98 89 107 114 115 106 )  ( 10 10 10 ) simpleGrading ( 1 1.0 1 ) // 67 
	hex ( 89 98 99 91 106 115 116 108 )  ( 10 10 10 ) simpleGrading ( 1 1 1 ) // 68 
	hex ( 91 99 100 92 108 116 117 109 )  ( 10 10 10 ) simpleGrading ( 1 1.0 1 ) // 69 
	hex ( 92 100 101 93 109 117 118 110 )  ( 10 10 10 ) simpleGrading ( 1 1.0 1 ) // 70 
	hex ( 93 101 94 86 110 118 111 103 )  ( 10 10 10 ) simpleGrading ( 1 1.0 1 ) // 71 
	hex ( 102 103 104 105 119 120 121 122 )  ( 10 10 10 ) simpleGrading ( 1.0 1 1 ) // 72 
	hex ( 106 102 105 107 123 119 122 124 )  ( 10 10 10 ) simpleGrading ( 1.0 1 1 ) // 73 